@<TRIPOS>MOLECULE
image0
  8991 14265     1     0     0
SMALL
NO_CHARGES
****
Generated from the CSD

@<TRIPOS>ATOM
     1 Zr1      2.4585   9.1159   0.2119   Zr        1 RES1   0.0000
     2 Zr2      6.4589  17.6363   0.2119   Zr        1 RES1   0.0000
     3 Zr3      6.4589   9.1159   8.7055   Zr        1 RES1   0.0000
     4 Zr4      2.4585  17.6363   8.7055   Zr        1 RES1   0.0000
     5 Zr5      0.2119   2.4585   9.1159   Zr        1 RES1   0.0000
     6 Zr6      0.2119   6.4589  17.6363   Zr        1 RES1   0.0000
     7 Zr7      8.7055   6.4589   9.1159   Zr        1 RES1   0.0000
     8 Zr8      8.7055   2.4585  17.6363   Zr        1 RES1   0.0000
     9 Zr9      9.1159   0.2119   2.4585   Zr        1 RES1   0.0000
    10 Zr10    17.6363   0.2119   6.4589   Zr        1 RES1   0.0000
    11 Zr11     9.1159   8.7055   6.4589   Zr        1 RES1   0.0000
    12 Zr12    17.6363   8.7055   2.4585   Zr        1 RES1   0.0000
    13 Zr13    15.3763   8.7189  17.6229   Zr        1 RES1   0.0000
    14 Zr14    11.3759   0.1985  17.6229   Zr        1 RES1   0.0000
    15 Zr15    11.3759   8.7189   9.1293   Zr        1 RES1   0.0000
    16 Zr16    15.3763   0.1985   9.1293   Zr        1 RES1   0.0000
    17 Zr17    17.6229  15.3763   8.7189   Zr        1 RES1   0.0000
    18 Zr18    17.6229  11.3759   0.1985   Zr        1 RES1   0.0000
    19 Zr19     9.1293  11.3759   8.7189   Zr        1 RES1   0.0000
    20 Zr20     9.1293  15.3763   0.1985   Zr        1 RES1   0.0000
    21 Zr21     8.7189  17.6229  15.3763   Zr        1 RES1   0.0000
    22 Zr22     0.1985  17.6229  11.3759   Zr        1 RES1   0.0000
    23 Zr23     8.7189   9.1293  11.3759   Zr        1 RES1   0.0000
    24 Zr24     0.1985   9.1293  15.3763   Zr        1 RES1   0.0000
    25 O1       3.7275   7.2855   0.1427   Oco2      1 RES1   0.0000
    26 O2       5.1899   1.6319   0.1427   Oco2      1 RES1   0.0000
    27 O3       5.1899   7.2855   8.7747   Oco2      1 RES1   0.0000
    28 O4       3.7275   1.6319   8.7747   Oco2      1 RES1   0.0000
    29 O5       0.1427   3.7275   7.2855   Oco2      1 RES1   0.0000
    30 O6       0.1427   5.1899   1.6319   Oco2      1 RES1   0.0000
    31 O7       8.7747   5.1899   7.2855   Oco2      1 RES1   0.0000
    32 O8       8.7747   3.7275   1.6319   Oco2      1 RES1   0.0000
    33 O9       7.2855   0.1427   3.7275   Oco2      1 RES1   0.0000
    34 O10      1.6319   0.1427   5.1899   Oco2      1 RES1   0.0000
    35 O11      7.2855   8.7747   5.1899   Oco2      1 RES1   0.0000
    36 O12      1.6319   8.7747   3.7275   Oco2      1 RES1   0.0000
    37 O13     14.1073  10.5493  17.6921   Oco2      1 RES1   0.0000
    38 O14     12.6449  16.2029  17.6921   Oco2      1 RES1   0.0000
    39 O15     12.6449  10.5493   9.0601   Oco2      1 RES1   0.0000
    40 O16     14.1073  16.2029   9.0601   Oco2      1 RES1   0.0000
    41 O17     17.6921  14.1073  10.5493   Oco2      1 RES1   0.0000
    42 O18     17.6921  12.6449  16.2029   Oco2      1 RES1   0.0000
    43 O19      9.0601  12.6449  10.5493   Oco2      1 RES1   0.0000
    44 O20      9.0601  14.1073  16.2029   Oco2      1 RES1   0.0000
    45 O21     10.5493  17.6921  14.1073   Oco2      1 RES1   0.0000
    46 O22     16.2029  17.6921  12.6449   Oco2      1 RES1   0.0000
    47 O23     10.5493   9.0601  12.6449   Oco2      1 RES1   0.0000
    48 O24     16.2029   9.0601  14.1073   Oco2      1 RES1   0.0000
    49 O25      3.3957  11.1396   0.4387   Oco2      1 RES1   0.0000
    50 O26      5.5217  15.6126   0.4387   Oco2      1 RES1   0.0000
    51 O27      5.5217  11.1396   8.4787   Oco2      1 RES1   0.0000
    52 O28      3.3957  15.6126   8.4787   Oco2      1 RES1   0.0000
    53 O29      0.4387   3.3957  11.1396   Oco2      1 RES1   0.0000
    54 O30      0.4387   5.5217  15.6126   Oco2      1 RES1   0.0000
    55 O31      8.4787   5.5217  11.1396   Oco2      1 RES1   0.0000
    56 O32      8.4787   3.3957  15.6126   Oco2      1 RES1   0.0000
    57 O33     11.1396   0.4387   3.3957   Oco2      1 RES1   0.0000
    58 O34     15.6126   0.4387   5.5217   Oco2      1 RES1   0.0000
    59 O35     11.1396   8.4787   5.5217   Oco2      1 RES1   0.0000
    60 O36     15.6126   8.4787   3.3957   Oco2      1 RES1   0.0000
    61 O37     14.4391   6.6952  17.3961   Oco2      1 RES1   0.0000
    62 O38     12.3131   2.2222  17.3961   Oco2      1 RES1   0.0000
    63 O39     12.3131   6.6952   9.3561   Oco2      1 RES1   0.0000
    64 O40     14.4391   2.2222   9.3561   Oco2      1 RES1   0.0000
    65 O41     17.3961  14.4391   6.6952   Oco2      1 RES1   0.0000
    66 O42     17.3961  12.3131   2.2222   Oco2      1 RES1   0.0000
    67 O43      9.3561  12.3131   6.6952   Oco2      1 RES1   0.0000
    68 O44      9.3561  14.4391   2.2222   Oco2      1 RES1   0.0000
    69 O45      6.6952  17.3961  14.4391   Oco2      1 RES1   0.0000
    70 O46      2.2222  17.3961  12.3131   Oco2      1 RES1   0.0000
    71 O47      6.6952   9.3561  12.3131   Oco2      1 RES1   0.0000
    72 O48      2.2222   9.3561  14.4391   Oco2      1 RES1   0.0000
    73 O49      3.3815   9.0476   2.2525   Oco2      1 RES1   0.0000
    74 O50      5.5359  -0.1302   2.2525   Oco2      1 RES1   0.0000
    75 O51      5.5359   9.0476   6.6649   Oco2      1 RES1   0.0000
    76 O52      3.3815  -0.1302   6.6649   Oco2      1 RES1   0.0000
    77 O53      2.2525   3.3815   9.0476   Oco2      1 RES1   0.0000
    78 O54      2.2525   5.5359  -0.1302   Oco2      1 RES1   0.0000
    79 O55      6.6649   5.5359   9.0476   Oco2      1 RES1   0.0000
    80 O56      6.6649   3.3815  -0.1302   Oco2      1 RES1   0.0000
    81 O57      9.0476   2.2525   3.3815   Oco2      1 RES1   0.0000
    82 O58     -0.1302   2.2525   5.5359   Oco2      1 RES1   0.0000
    83 O59      9.0476   6.6649   5.5359   Oco2      1 RES1   0.0000
    84 O60     -0.1302   6.6649   3.3815   Oco2      1 RES1   0.0000
    85 O61     14.4533   8.7872  15.5823   Oco2      1 RES1   0.0000
    86 O62     12.2989  17.9650  15.5823   Oco2      1 RES1   0.0000
    87 O63     12.2989   8.7872  11.1699   Oco2      1 RES1   0.0000
    88 O64     14.4533  17.9650  11.1699   Oco2      1 RES1   0.0000
    89 O65     15.5823  14.4533   8.7872   Oco2      1 RES1   0.0000
    90 O66     15.5823  12.2989  17.9650   Oco2      1 RES1   0.0000
    91 O67     11.1699  12.2989   8.7872   Oco2      1 RES1   0.0000
    92 O68     11.1699  14.4533  17.9650   Oco2      1 RES1   0.0000
    93 O69      8.7872  15.5823  14.4533   Oco2      1 RES1   0.0000
    94 O70     17.9650  15.5823  12.2989   Oco2      1 RES1   0.0000
    95 O71      8.7872  11.1699  12.2989   Oco2      1 RES1   0.0000
    96 O72     17.9650  11.1699  14.4533   Oco2      1 RES1   0.0000
    97 O73      3.7239   9.3437  16.2190   Oco2      1 RES1   0.0000
    98 O74      5.1935  17.4085  16.2190   Oco2      1 RES1   0.0000
    99 O75      5.1935   9.3437  10.5332   Oco2      1 RES1   0.0000
   100 O76      3.7239  17.4085  10.5332   Oco2      1 RES1   0.0000
   101 O77     16.2190   3.7239   9.3437   Oco2      1 RES1   0.0000
   102 O78     16.2190   5.1935  17.4085   Oco2      1 RES1   0.0000
   103 O79     10.5332   5.1935   9.3437   Oco2      1 RES1   0.0000
   104 O80     10.5332   3.7239  17.4085   Oco2      1 RES1   0.0000
   105 O81      9.3437  16.2190   3.7239   Oco2      1 RES1   0.0000
   106 O82     17.4085  16.2190   5.1935   Oco2      1 RES1   0.0000
   107 O83      9.3437  10.5332   5.1935   Oco2      1 RES1   0.0000
   108 O84     17.4085  10.5332   3.7239   Oco2      1 RES1   0.0000
   109 O85     14.1109   8.4911   1.6158   Oco2      1 RES1   0.0000
   110 O86     12.6413   0.4263   1.6158   Oco2      1 RES1   0.0000
   111 O87     12.6413   8.4911   7.3016   Oco2      1 RES1   0.0000
   112 O88     14.1109   0.4263   7.3016   Oco2      1 RES1   0.0000
   113 O89      1.6158  14.1109   8.4911   Oco2      1 RES1   0.0000
   114 O90      1.6158  12.6413   0.4263   Oco2      1 RES1   0.0000
   115 O91      7.3016  12.6413   8.4911   Oco2      1 RES1   0.0000
   116 O92      7.3016  14.1109   0.4263   Oco2      1 RES1   0.0000
   117 O93      8.4911   1.6158  14.1109   Oco2      1 RES1   0.0000
   118 O94      0.4263   1.6158  12.6413   Oco2      1 RES1   0.0000
   119 O95      8.4911   7.3016  12.6413   Oco2      1 RES1   0.0000
   120 O96      0.4263   7.3016  14.1109   Oco2      1 RES1   0.0000
   121 C1       2.8607  12.2900   0.4280   C.2       1 RES1   0.0000
   122 C2       6.0567  14.4622   0.4280   C.2       1 RES1   0.0000
   123 C3       6.0567  12.2900   8.4894   C.2       1 RES1   0.0000
   124 C4       2.8607  14.4622   8.4894   C.2       1 RES1   0.0000
   125 C5       0.4280   2.8607  12.2900   C.2       1 RES1   0.0000
   126 C6       0.4280   6.0567  14.4622   C.2       1 RES1   0.0000
   127 C7       8.4894   6.0567  12.2900   C.2       1 RES1   0.0000
   128 C8       8.4894   2.8607  14.4622   C.2       1 RES1   0.0000
   129 C9      12.2900   0.4280   2.8607   C.2       1 RES1   0.0000
   130 C10     14.4622   0.4280   6.0567   C.2       1 RES1   0.0000
   131 C11     12.2900   8.4894   6.0567   C.2       1 RES1   0.0000
   132 C12     14.4622   8.4894   2.8607   C.2       1 RES1   0.0000
   133 C13     14.9741   5.5448  17.4068   C.2       1 RES1   0.0000
   134 C14     11.7781   3.3726  17.4068   C.2       1 RES1   0.0000
   135 C15     11.7781   5.5448   9.3454   C.2       1 RES1   0.0000
   136 C16     14.9741   3.3726   9.3454   C.2       1 RES1   0.0000
   137 C17     17.4068  14.9741   5.5448   C.2       1 RES1   0.0000
   138 C18     17.4068  11.7781   3.3726   C.2       1 RES1   0.0000
   139 C19      9.3454  11.7781   5.5448   C.2       1 RES1   0.0000
   140 C20      9.3454  14.9741   3.3726   C.2       1 RES1   0.0000
   141 C21      5.5448  17.4068  14.9741   C.2       1 RES1   0.0000
   142 C22      3.3726  17.4068  11.7781   C.2       1 RES1   0.0000
   143 C23      5.5448   9.3454  11.7781   C.2       1 RES1   0.0000
   144 C24      3.3726   9.3454  14.9741   C.2       1 RES1   0.0000
   145 C25      3.8202  13.4742   0.4334   C.2       1 RES1   0.0000
   146 C26      5.0972  13.2780   0.4334   C.2       1 RES1   0.0000
   147 C27      5.0972  13.4742   8.4840   C.2       1 RES1   0.0000
   148 C28      3.8202  13.2780   8.4840   C.2       1 RES1   0.0000
   149 C29      0.4334   3.8202  13.4742   C.2       1 RES1   0.0000
   150 C30      0.4334   5.0972  13.2780   C.2       1 RES1   0.0000
   151 C31      8.4840   5.0972  13.4742   C.2       1 RES1   0.0000
   152 C32      8.4840   3.8202  13.2780   C.2       1 RES1   0.0000
   153 C33     13.4742   0.4334   3.8202   C.2       1 RES1   0.0000
   154 C34     13.2780   0.4334   5.0972   C.2       1 RES1   0.0000
   155 C35     13.4742   8.4840   5.0972   C.2       1 RES1   0.0000
   156 C36     13.2780   8.4840   3.8202   C.2       1 RES1   0.0000
   157 C37     14.0146   4.3606  17.4014   C.2       1 RES1   0.0000
   158 C38     12.7376   4.5568  17.4014   C.2       1 RES1   0.0000
   159 C39     12.7376   4.3606   9.3508   C.2       1 RES1   0.0000
   160 C40     14.0146   4.5568   9.3508   C.2       1 RES1   0.0000
   161 C41     17.4014  14.0146   4.3606   C.2       1 RES1   0.0000
   162 C42     17.4014  12.7376   4.5568   C.2       1 RES1   0.0000
   163 C43      9.3508  12.7376   4.3606   C.2       1 RES1   0.0000
   164 C44      9.3508  14.0146   4.5568   C.2       1 RES1   0.0000
   165 C45      4.3606  17.4014  14.0146   C.2       1 RES1   0.0000
   166 C46      4.5568  17.4014  12.7376   C.2       1 RES1   0.0000
   167 C47      4.3606   9.3508  12.7376   C.2       1 RES1   0.0000
   168 C48      4.5568   9.3508  14.0146   C.2       1 RES1   0.0000
   169 H1       3.4867  14.3427   0.4352   H         1 RES1   0.0000
   170 H2       5.4307  12.4095   0.4352   H         1 RES1   0.0000
   171 H3       5.4307  14.3427   8.4822   H         1 RES1   0.0000
   172 H4       3.4867  12.4095   8.4822   H         1 RES1   0.0000
   173 H5       0.4352   3.4867  14.3427   H         1 RES1   0.0000
   174 H6       0.4352   5.4307  12.4095   H         1 RES1   0.0000
   175 H7       8.4822   5.4307  14.3427   H         1 RES1   0.0000
   176 H8       8.4822   3.4867  12.4095   H         1 RES1   0.0000
   177 H9      14.3427   0.4352   3.4867   H         1 RES1   0.0000
   178 H10     12.4095   0.4352   5.4307   H         1 RES1   0.0000
   179 H11     14.3427   8.4822   5.4307   H         1 RES1   0.0000
   180 H12     12.4095   8.4822   3.4867   H         1 RES1   0.0000
   181 H13     14.3481   3.4921  17.3996   H         1 RES1   0.0000
   182 H14     12.4041   5.4253  17.3996   H         1 RES1   0.0000
   183 H15     12.4041   3.4921   9.3526   H         1 RES1   0.0000
   184 H16     14.3481   5.4253   9.3526   H         1 RES1   0.0000
   185 H17     17.3996  14.3481   3.4921   H         1 RES1   0.0000
   186 H18     17.3996  12.4041   5.4253   H         1 RES1   0.0000
   187 H19      9.3526  12.4041   3.4921   H         1 RES1   0.0000
   188 H20      9.3526  14.3481   5.4253   H         1 RES1   0.0000
   189 H21      3.4921  17.3996  14.3481   H         1 RES1   0.0000
   190 H22      5.4253  17.3996  12.4041   H         1 RES1   0.0000
   191 H23      3.4921   9.3526  12.4041   H         1 RES1   0.0000
   192 H24      5.4253   9.3526  14.3481   H         1 RES1   0.0000
   193 C49      3.3993   6.0603   0.0000   C.2       1 RES1   0.0000
   194 C50      5.5181   2.8571   0.0000   C.2       1 RES1   0.0000
   195 C51      5.5181   6.0603   8.9174   C.2       1 RES1   0.0000
   196 C52      3.3993   2.8571   8.9174   C.2       1 RES1   0.0000
   197 C53      0.0000   3.3993   6.0603   C.2       1 RES1   0.0000
   198 C54      0.0000   5.5181   2.8571   C.2       1 RES1   0.0000
   199 C55      8.9174   5.5181   6.0603   C.2       1 RES1   0.0000
   200 C56      8.9174   3.3993   2.8571   C.2       1 RES1   0.0000
   201 C57      6.0603   0.0000   3.3993   C.2       1 RES1   0.0000
   202 C58      2.8571   0.0000   5.5181   C.2       1 RES1   0.0000
   203 C59      6.0603   8.9174   5.5181   C.2       1 RES1   0.0000
   204 C60      2.8571   8.9174   3.3993   C.2       1 RES1   0.0000
   205 C61     14.4355  11.7745  17.8348   C.2       1 RES1   0.0000
   206 C62     12.3167  14.9777  17.8348   C.2       1 RES1   0.0000
   207 C63     12.3167  11.7745   8.9174   C.2       1 RES1   0.0000
   208 C64     14.4355  14.9777   8.9174   C.2       1 RES1   0.0000
   209 C65     17.8348  14.4355  11.7745   C.2       1 RES1   0.0000
   210 C66     17.8348  12.3167  14.9777   C.2       1 RES1   0.0000
   211 C67      8.9174  12.3167  11.7745   C.2       1 RES1   0.0000
   212 C68      8.9174  14.4355  14.9777   C.2       1 RES1   0.0000
   213 C69     11.7745  17.8348  14.4355   C.2       1 RES1   0.0000
   214 C70     14.9777  17.8348  12.3167   C.2       1 RES1   0.0000
   215 C71     11.7745   8.9174  12.3167   C.2       1 RES1   0.0000
   216 C72     14.9777   8.9174  14.4355   C.2       1 RES1   0.0000
   217 C73      4.5782   5.1097   0.0018   C.2       1 RES1   0.0000
   218 C74      4.3392   3.8077   0.0018   C.2       1 RES1   0.0000
   219 C75      4.3392   5.1097   8.9156   C.2       1 RES1   0.0000
   220 C76      4.5782   3.8077   8.9156   C.2       1 RES1   0.0000
   221 C77      0.0018   4.5782   5.1097   C.2       1 RES1   0.0000
   222 C78      0.0018   4.3392   3.8077   C.2       1 RES1   0.0000
   223 C79      8.9156   4.3392   5.1097   C.2       1 RES1   0.0000
   224 C80      8.9156   4.5782   3.8077   C.2       1 RES1   0.0000
   225 C81      5.1097   0.0018   4.5782   C.2       1 RES1   0.0000
   226 C82      3.8077   0.0018   4.3392   C.2       1 RES1   0.0000
   227 C83      5.1097   8.9156   4.3392   C.2       1 RES1   0.0000
   228 C84      3.8077   8.9156   4.5782   C.2       1 RES1   0.0000
   229 C85     13.2566  12.7251  17.8330   C.2       1 RES1   0.0000
   230 C86     13.4956  14.0271  17.8330   C.2       1 RES1   0.0000
   231 C87     13.4956  12.7251   8.9192   C.2       1 RES1   0.0000
   232 C88     13.2566  14.0271   8.9192   C.2       1 RES1   0.0000
   233 C89     17.8330  13.2566  12.7251   C.2       1 RES1   0.0000
   234 C90     17.8330  13.4956  14.0271   C.2       1 RES1   0.0000
   235 C91      8.9192  13.4956  12.7251   C.2       1 RES1   0.0000
   236 C92      8.9192  13.2566  14.0271   C.2       1 RES1   0.0000
   237 C93     12.7251  17.8330  13.2566   C.2       1 RES1   0.0000
   238 C94     14.0271  17.8330  13.4956   C.2       1 RES1   0.0000
   239 C95     12.7251   8.9192  13.4956   C.2       1 RES1   0.0000
   240 C96     14.0271   8.9192  13.2566   C.2       1 RES1   0.0000
   241 H25      5.4503   5.4325   0.0018   H         1 RES1   0.0000
   242 H26      3.4671   3.4849   0.0018   H         1 RES1   0.0000
   243 H27      3.4671   5.4325   8.9156   H         1 RES1   0.0000
   244 H28      5.4503   3.4849   8.9156   H         1 RES1   0.0000
   245 H29      0.0018   5.4503   5.4325   H         1 RES1   0.0000
   246 H30      0.0018   3.4671   3.4849   H         1 RES1   0.0000
   247 H31      8.9156   3.4671   5.4325   H         1 RES1   0.0000
   248 H32      8.9156   5.4503   3.4849   H         1 RES1   0.0000
   249 H33      5.4325   0.0018   5.4503   H         1 RES1   0.0000
   250 H34      3.4849   0.0018   3.4671   H         1 RES1   0.0000
   251 H35      5.4325   8.9156   3.4671   H         1 RES1   0.0000
   252 H36      3.4849   8.9156   5.4503   H         1 RES1   0.0000
   253 H37     12.3845  12.4023  17.8330   H         1 RES1   0.0000
   254 H38     14.3677  14.3499  17.8330   H         1 RES1   0.0000
   255 H39     14.3677  12.4023   8.9192   H         1 RES1   0.0000
   256 H40     12.3845  14.3499   8.9192   H         1 RES1   0.0000
   257 H41     17.8330  12.3845  12.4023   H         1 RES1   0.0000
   258 H42     17.8330  14.3677  14.3499   H         1 RES1   0.0000
   259 H43      8.9192  14.3677  12.4023   H         1 RES1   0.0000
   260 H44      8.9192  12.3845  14.3499   H         1 RES1   0.0000
   261 H45     12.4023  17.8330  12.3845   H         1 RES1   0.0000
   262 H46     14.3499  17.8330  14.3677   H         1 RES1   0.0000
   263 H47     12.4023   8.9192  14.3677   H         1 RES1   0.0000
   264 H48     14.3499   8.9192  12.3845   H         1 RES1   0.0000
   265 O97      1.3644  10.5529  16.6809   O3        1 RES1   0.0000
   266 O98      7.5530  16.1993  16.6809   O3        1 RES1   0.0000
   267 O99      7.5530  10.5529  10.0713   O3        1 RES1   0.0000
   268 O100     1.3644  16.1993  10.0713   O3        1 RES1   0.0000
   269 O101    16.6809   1.3644  10.5529   O3        1 RES1   0.0000
   270 O102    16.6809   7.5530  16.1993   O3        1 RES1   0.0000
   271 O103    10.0713   7.5530  10.5529   O3        1 RES1   0.0000
   272 O104    10.0713   1.3644  16.1993   O3        1 RES1   0.0000
   273 O105    10.5529  16.6809   1.3644   O3        1 RES1   0.0000
   274 O106    16.1993  16.6809   7.5530   O3        1 RES1   0.0000
   275 O107    10.5529  10.0713   7.5530   O3        1 RES1   0.0000
   276 O108    16.1993  10.0713   1.3644   O3        1 RES1   0.0000
   277 O109    16.4704   7.2819   1.1539   O3        1 RES1   0.0000
   278 O110    10.2818   1.6355   1.1539   O3        1 RES1   0.0000
   279 O111    10.2818   7.2819   7.7635   O3        1 RES1   0.0000
   280 O112    16.4704   1.6355   7.7635   O3        1 RES1   0.0000
   281 O113     1.1539  16.4704   7.2819   O3        1 RES1   0.0000
   282 O114     1.1539  10.2818   1.6355   O3        1 RES1   0.0000
   283 O115     7.7635  10.2818   7.2819   O3        1 RES1   0.0000
   284 O116     7.7635  16.4704   1.6355   O3        1 RES1   0.0000
   285 O117     7.2819   1.1539  16.4704   O3        1 RES1   0.0000
   286 O118     1.6355   1.1539  10.2818   O3        1 RES1   0.0000
   287 O119     7.2819   7.7635  10.2818   O3        1 RES1   0.0000
   288 O153     1.4000   7.5174   1.4000   O3        1 RES1   0.0000
   289 O154     7.5174   1.4000   1.4000   O3        1 RES1   0.0000
   290 O155     7.5174   7.5174   7.5174   O3        1 RES1   0.0000
   291 O156     1.4000   1.4000   7.5174   O3        1 RES1   0.0000
   292 O157    16.4348  10.3174  16.4348   O3        1 RES1   0.0000
   293 O158    10.3174  16.4348  16.4348   O3        1 RES1   0.0000
   294 O159    10.3174  10.3174  10.3174   O3        1 RES1   0.0000
   295 O160    16.4348  16.4348  10.3174   O3        1 RES1   0.0000
   296 Zr1      2.4585   9.1159  18.0467   Zr        1 RES1   0.0000
   297 Zr1     20.2933   9.1159   0.2119   Zr        1 RES1   0.0000
   298 Zr2      6.4589  -0.1985   0.2119   Zr        1 RES1   0.0000
   299 Zr2      6.4589  -0.1985  18.0467   Zr        1 RES1   0.0000
   300 Zr2      6.4589  17.6363  18.0467   Zr        1 RES1   0.0000
   301 Zr4      2.4585  -0.1985   8.7055   Zr        1 RES1   0.0000
   302 Zr4     20.2933  -0.1985   8.7055   Zr        1 RES1   0.0000
   303 Zr4     20.2933  17.6363   8.7055   Zr        1 RES1   0.0000
   304 Zr5      0.2119  20.2933   9.1159   Zr        1 RES1   0.0000
   305 Zr5     18.0467   2.4585   9.1159   Zr        1 RES1   0.0000
   306 Zr6      0.2119   6.4589  -0.1985   Zr        1 RES1   0.0000
   307 Zr6     18.0467   6.4589  -0.1985   Zr        1 RES1   0.0000
   308 Zr6     18.0467   6.4589  17.6363   Zr        1 RES1   0.0000
   309 Zr8      8.7055   2.4585  -0.1985   Zr        1 RES1   0.0000
   310 Zr8      8.7055  20.2933  -0.1985   Zr        1 RES1   0.0000
   311 Zr8      8.7055  20.2933  17.6363   Zr        1 RES1   0.0000
   312 Zr9      9.1159   0.2119  20.2933   Zr        1 RES1   0.0000
   313 Zr9      9.1159  18.0467   2.4585   Zr        1 RES1   0.0000
   314 Zr10    -0.1985   0.2119   6.4589   Zr        1 RES1   0.0000
   315 Zr10    -0.1985  18.0467   6.4589   Zr        1 RES1   0.0000
   316 Zr10    17.6363  18.0467   6.4589   Zr        1 RES1   0.0000
   317 Zr12    -0.1985   8.7055   2.4585   Zr        1 RES1   0.0000
   318 Zr12    -0.1985   8.7055  20.2933   Zr        1 RES1   0.0000
   319 Zr12    17.6363   8.7055  20.2933   Zr        1 RES1   0.0000
   320 Zr13    -2.4585   8.7189  17.6229   Zr        1 RES1   0.0000
   321 Zr13    15.3763   8.7189  -0.2119   Zr        1 RES1   0.0000
   322 Zr14    11.3759   0.1985  -0.2119   Zr        1 RES1   0.0000
   323 Zr14    11.3759  18.0333  -0.2119   Zr        1 RES1   0.0000
   324 Zr14    11.3759  18.0333  17.6229   Zr        1 RES1   0.0000
   325 Zr16    -2.4585   0.1985   9.1293   Zr        1 RES1   0.0000
   326 Zr16    -2.4585  18.0333   9.1293   Zr        1 RES1   0.0000
   327 Zr16    15.3763  18.0333   9.1293   Zr        1 RES1   0.0000
   328 Zr17    -0.2119  15.3763   8.7189   Zr        1 RES1   0.0000
   329 Zr17    17.6229  -2.4585   8.7189   Zr        1 RES1   0.0000
   330 Zr18    -0.2119  11.3759   0.1985   Zr        1 RES1   0.0000
   331 Zr18    -0.2119  11.3759  18.0333   Zr        1 RES1   0.0000
   332 Zr18    17.6229  11.3759  18.0333   Zr        1 RES1   0.0000
   333 Zr20     9.1293  -2.4585   0.1985   Zr        1 RES1   0.0000
   334 Zr20     9.1293  -2.4585  18.0333   Zr        1 RES1   0.0000
   335 Zr20     9.1293  15.3763  18.0333   Zr        1 RES1   0.0000
   336 Zr21     8.7189  -0.2119  15.3763   Zr        1 RES1   0.0000
   337 Zr21     8.7189  17.6229  -2.4585   Zr        1 RES1   0.0000
   338 Zr22     0.1985  -0.2119  11.3759   Zr        1 RES1   0.0000
   339 Zr22    18.0333  -0.2119  11.3759   Zr        1 RES1   0.0000
   340 Zr22    18.0333  17.6229  11.3759   Zr        1 RES1   0.0000
   341 Zr24     0.1985   9.1293  -2.4585   Zr        1 RES1   0.0000
   342 Zr24    18.0333   9.1293  -2.4585   Zr        1 RES1   0.0000
   343 Zr24    18.0333   9.1293  15.3763   Zr        1 RES1   0.0000
   344 O2       5.1899  19.4667   0.1427   Oco2      1 RES1   0.0000
   345 O4       3.7275  19.4667   8.7747   Oco2      1 RES1   0.0000
   346 O6       0.1427   5.1899  19.4667   Oco2      1 RES1   0.0000
   347 O8       8.7747   3.7275  19.4667   Oco2      1 RES1   0.0000
   348 O10     19.4667   0.1427   5.1899   Oco2      1 RES1   0.0000
   349 O12     19.4667   8.7747   3.7275   Oco2      1 RES1   0.0000
   350 O14     12.6449  -1.6319  17.6921   O.2       1 RES1   0.0000
   351 O16     14.1073  -1.6319   9.0601   O.2       1 RES1   0.0000
   352 O18     17.6921  12.6449  -1.6319   O.2       1 RES1   0.0000
   353 O20      9.0601  14.1073  -1.6319   O.2       1 RES1   0.0000
   354 O22     -1.6319  17.6921  12.6449   O.2       1 RES1   0.0000
   355 O24     -1.6319   9.0601  14.1073   O.2       1 RES1   0.0000
   356 O50      5.5359  17.7046   2.2525   Oco2      1 RES1   0.0000
   357 O52      3.3815  17.7046   6.6649   Oco2      1 RES1   0.0000
   358 O54      2.2525   5.5359  17.7046   Oco2      1 RES1   0.0000
   359 O56      6.6649   3.3815  17.7046   Oco2      1 RES1   0.0000
   360 O58     17.7046   2.2525   5.5359   Oco2      1 RES1   0.0000
   361 O60     17.7046   6.6649   3.3815   Oco2      1 RES1   0.0000
   362 O62     12.2989   0.1302  15.5823   O.2       1 RES1   0.0000
   363 O64     14.4533   0.1302  11.1699   O.2       1 RES1   0.0000
   364 O66     15.5823  12.2989   0.1302   O.2       1 RES1   0.0000
   365 O68     11.1699  14.4533   0.1302   O.2       1 RES1   0.0000
   366 O70      0.1302  15.5823  12.2989   O.2       1 RES1   0.0000
   367 O72      0.1302  11.1699  14.4533   O.2       1 RES1   0.0000
   368 O73      3.7239   9.3437  -1.6158   O.2       1 RES1   0.0000
   369 O74      5.1935  17.4085  -1.6158   O.2       1 RES1   0.0000
   370 O77     -1.6158   3.7239   9.3437   O.2       1 RES1   0.0000
   371 O78     -1.6158   5.1935  17.4085   O.2       1 RES1   0.0000
   372 O81      9.3437  -1.6158   3.7239   O.2       1 RES1   0.0000
   373 O82     17.4085  -1.6158   5.1935   O.2       1 RES1   0.0000
   374 O85     14.1109   8.4911  19.4506   Oco2      1 RES1   0.0000
   375 O86     12.6413   0.4263  19.4506   Oco2      1 RES1   0.0000
   376 O89     19.4506  14.1109   8.4911   Oco2      1 RES1   0.0000
   377 O90     19.4506  12.6413   0.4263   Oco2      1 RES1   0.0000
   378 O93      8.4911  19.4506  14.1109   Oco2      1 RES1   0.0000
   379 O94      0.4263  19.4506  12.6413   Oco2      1 RES1   0.0000
   380 O97      1.3644  10.5529  -1.1539   O3        1 RES1   0.0000
   381 O97     19.1992  10.5529  -1.1539   O3        1 RES1   0.0000
   382 O98      7.5530  16.1993  -1.1539   O3        1 RES1   0.0000
   383 O100    19.1992  16.1993  10.0713   O3        1 RES1   0.0000
   384 O101    -1.1539   1.3644  10.5529   O3        1 RES1   0.0000
   385 O101    -1.1539  19.1992  10.5529   O3        1 RES1   0.0000
   386 O102    -1.1539   7.5530  16.1993   O3        1 RES1   0.0000
   387 O104    10.0713  19.1992  16.1993   O3        1 RES1   0.0000
   388 O105    10.5529  -1.1539   1.3644   O3        1 RES1   0.0000
   389 O105    10.5529  -1.1539  19.1992   O3        1 RES1   0.0000
   390 O106    16.1993  -1.1539   7.5530   O3        1 RES1   0.0000
   391 O108    16.1993  10.0713  19.1992   O3        1 RES1   0.0000
   392 O109    -1.3644   7.2819  18.9887   O3        1 RES1   0.0000
   393 O109    16.4704   7.2819  18.9887   O3        1 RES1   0.0000
   394 O110    10.2818   1.6355  18.9887   O3        1 RES1   0.0000
   395 O112    -1.3644   1.6355   7.7635   O3        1 RES1   0.0000
   396 O113    18.9887  -1.3644   7.2819   O3        1 RES1   0.0000
   397 O113    18.9887  16.4704   7.2819   O3        1 RES1   0.0000
   398 O114    18.9887  10.2818   1.6355   O3        1 RES1   0.0000
   399 O116     7.7635  -1.3644   1.6355   O3        1 RES1   0.0000
   400 O117     7.2819  18.9887  -1.3644   O3        1 RES1   0.0000
   401 O117     7.2819  18.9887  16.4704   O3        1 RES1   0.0000
   402 O118     1.6355  18.9887  10.2818   O3        1 RES1   0.0000
   403 O120     1.6355   7.7635  -1.3644   O3        1 RES1   0.0000
   404 O153     1.4000   7.5174  19.2348   O3        1 RES1   0.0000
   405 O153    19.2348   7.5174   1.4000   O3        1 RES1   0.0000
   406 O154     7.5174   1.4000  19.2348   O3        1 RES1   0.0000
   407 O154     7.5174  19.2348   1.4000   O3        1 RES1   0.0000
   408 O156     1.4000  19.2348   7.5174   O3        1 RES1   0.0000
   409 O156    19.2348   1.4000   7.5174   O3        1 RES1   0.0000
   410 O157    -1.4000  10.3174  16.4348   O3        1 RES1   0.0000
   411 O157    16.4348  10.3174  -1.4000   O3        1 RES1   0.0000
   412 O158    10.3174  -1.4000  16.4348   O3        1 RES1   0.0000
   413 O158    10.3174  16.4348  -1.4000   O3        1 RES1   0.0000
   414 O160    -1.4000  16.4348  10.3174   O3        1 RES1   0.0000
   415 O160    16.4348  -1.4000  10.3174   O3        1 RES1   0.0000
   416 Zr3      6.4589   9.1159  26.5403   Zr        1 RES1   0.0000
   417 Zr4      2.4585  17.6363  26.5403   Zr        1 RES1   0.0000
   418 Zr5      0.2119   2.4585  26.9507   Zr        1 RES1   0.0000
   419 Zr6      0.2119   6.4589  35.4711   Zr        1 RES1   0.0000
   420 Zr7      8.7055   6.4589  26.9507   Zr        1 RES1   0.0000
   421 Zr8      8.7055   2.4585  35.4711   Zr        1 RES1   0.0000
   422 Zr10    17.6363   0.2119  24.2937   Zr        1 RES1   0.0000
   423 Zr11     9.1159   8.7055  24.2937   Zr        1 RES1   0.0000
   424 Zr13    15.3763   8.7189  35.4577   Zr        1 RES1   0.0000
   425 Zr14    11.3759   0.1985  35.4577   Zr        1 RES1   0.0000
   426 Zr15    11.3759   8.7189  26.9641   Zr        1 RES1   0.0000
   427 Zr16    15.3763   0.1985  26.9641   Zr        1 RES1   0.0000
   428 Zr17    17.6229  15.3763  26.5537   Zr        1 RES1   0.0000
   429 Zr19     9.1293  11.3759  26.5537   Zr        1 RES1   0.0000
   430 Zr21     8.7189  17.6229  33.2111   Zr        1 RES1   0.0000
   431 Zr22     0.1985  17.6229  29.2107   Zr        1 RES1   0.0000
   432 Zr23     8.7189   9.1293  29.2107   Zr        1 RES1   0.0000
   433 Zr24     0.1985   9.1293  33.2111   Zr        1 RES1   0.0000
   434 O1       3.7275   7.2855  17.9775   Oco2      1 RES1   0.0000
   435 O2       5.1899   1.6319  17.9775   Oco2      1 RES1   0.0000
   436 O3       5.1899   7.2855  26.6095   Oco2      1 RES1   0.0000
   437 O4       3.7275   1.6319  26.6095   Oco2      1 RES1   0.0000
   438 O5       0.1427   3.7275  25.1203   Oco2      1 RES1   0.0000
   439 O7       8.7747   5.1899  25.1203   Oco2      1 RES1   0.0000
   440 O9       7.2855   0.1427  21.5623   Oco2      1 RES1   0.0000
   441 O10      1.6319   0.1427  23.0247   Oco2      1 RES1   0.0000
   442 O11      7.2855   8.7747  23.0247   Oco2      1 RES1   0.0000
   443 O12      1.6319   8.7747  21.5623   Oco2      1 RES1   0.0000
   444 O13     14.1073  10.5493  35.5269   Oco2      1 RES1   0.0000
   445 O14     12.6449  16.2029  35.5269   Oco2      1 RES1   0.0000
   446 O15     12.6449  10.5493  26.8949   Oco2      1 RES1   0.0000
   447 O16     14.1073  16.2029  26.8949   Oco2      1 RES1   0.0000
   448 O17     17.6921  14.1073  28.3841   Oco2      1 RES1   0.0000
   449 O18     17.6921  12.6449  34.0377   Oco2      1 RES1   0.0000
   450 O19      9.0601  12.6449  28.3841   Oco2      1 RES1   0.0000
   451 O20      9.0601  14.1073  34.0377   Oco2      1 RES1   0.0000
   452 O21     10.5493  17.6921  31.9421   Oco2      1 RES1   0.0000
   453 O22     16.2029  17.6921  30.4797   Oco2      1 RES1   0.0000
   454 O23     10.5493   9.0601  30.4797   Oco2      1 RES1   0.0000
   455 O24     16.2029   9.0601  31.9421   Oco2      1 RES1   0.0000
   456 O25      3.3957  11.1396  18.2735   Oco2      1 RES1   0.0000
   457 O26      5.5217  15.6126  18.2735   Oco2      1 RES1   0.0000
   458 O27      5.5217  11.1396  26.3135   Oco2      1 RES1   0.0000
   459 O28      3.3957  15.6126  26.3135   Oco2      1 RES1   0.0000
   460 O29      0.4387   3.3957  28.9744   Oco2      1 RES1   0.0000
   461 O30      0.4387   5.5217  33.4474   Oco2      1 RES1   0.0000
   462 O31      8.4787   5.5217  28.9744   Oco2      1 RES1   0.0000
   463 O32      8.4787   3.3957  33.4474   Oco2      1 RES1   0.0000
   464 O33     11.1396   0.4387  21.2305   Oco2      1 RES1   0.0000
   465 O34     15.6126   0.4387  23.3565   Oco2      1 RES1   0.0000
   466 O35     11.1396   8.4787  23.3565   Oco2      1 RES1   0.0000
   467 O36     15.6126   8.4787  21.2305   Oco2      1 RES1   0.0000
   468 O37     14.4391   6.6952  35.2309   Oco2      1 RES1   0.0000
   469 O38     12.3131   2.2222  35.2309   Oco2      1 RES1   0.0000
   470 O39     12.3131   6.6952  27.1909   Oco2      1 RES1   0.0000
   471 O40     14.4391   2.2222  27.1909   Oco2      1 RES1   0.0000
   472 O41     17.3961  14.4391  24.5300   Oco2      1 RES1   0.0000
   473 O42     17.3961  12.3131  20.0570   Oco2      1 RES1   0.0000
   474 O43      9.3561  12.3131  24.5300   Oco2      1 RES1   0.0000
   475 O44      9.3561  14.4391  20.0570   Oco2      1 RES1   0.0000
   476 O45      6.6952  17.3961  32.2739   Oco2      1 RES1   0.0000
   477 O46      2.2222  17.3961  30.1479   Oco2      1 RES1   0.0000
   478 O47      6.6952   9.3561  30.1479   Oco2      1 RES1   0.0000
   479 O48      2.2222   9.3561  32.2739   Oco2      1 RES1   0.0000
   480 O49      3.3815   9.0476  20.0873   Oco2      1 RES1   0.0000
   481 O50      5.5359  -0.1302  20.0873   Oco2      1 RES1   0.0000
   482 O51      5.5359   9.0476  24.4997   Oco2      1 RES1   0.0000
   483 O52      3.3815  -0.1302  24.4997   Oco2      1 RES1   0.0000
   484 O53      2.2525   3.3815  26.8824   Oco2      1 RES1   0.0000
   485 O55      6.6649   5.5359  26.8824   Oco2      1 RES1   0.0000
   486 O57      9.0476   2.2525  21.2163   Oco2      1 RES1   0.0000
   487 O58     -0.1302   2.2525  23.3707   Oco2      1 RES1   0.0000
   488 O59      9.0476   6.6649  23.3707   Oco2      1 RES1   0.0000
   489 O60     -0.1302   6.6649  21.2163   Oco2      1 RES1   0.0000
   490 O61     14.4533   8.7872  33.4171   Oco2      1 RES1   0.0000
   491 O62     12.2989  17.9650  33.4171   Oco2      1 RES1   0.0000
   492 O63     12.2989   8.7872  29.0047   Oco2      1 RES1   0.0000
   493 O64     14.4533  17.9650  29.0047   Oco2      1 RES1   0.0000
   494 O65     15.5823  14.4533  26.6220   Oco2      1 RES1   0.0000
   495 O66     15.5823  12.2989  35.7998   Oco2      1 RES1   0.0000
   496 O67     11.1699  12.2989  26.6220   Oco2      1 RES1   0.0000
   497 O68     11.1699  14.4533  35.7998   Oco2      1 RES1   0.0000
   498 O69      8.7872  15.5823  32.2881   Oco2      1 RES1   0.0000
   499 O70     17.9650  15.5823  30.1337   Oco2      1 RES1   0.0000
   500 O71      8.7872  11.1699  30.1337   Oco2      1 RES1   0.0000
   501 O72     17.9650  11.1699  32.2881   Oco2      1 RES1   0.0000
   502 O73      3.7239   9.3437  34.0538   Oco2      1 RES1   0.0000
   503 O74      5.1935  17.4085  34.0538   Oco2      1 RES1   0.0000
   504 O75      5.1935   9.3437  28.3680   Oco2      1 RES1   0.0000
   505 O76      3.7239  17.4085  28.3680   Oco2      1 RES1   0.0000
   506 O77     16.2190   3.7239  27.1785   Oco2      1 RES1   0.0000
   507 O78     16.2190   5.1935  35.2433   Oco2      1 RES1   0.0000
   508 O79     10.5332   5.1935  27.1785   Oco2      1 RES1   0.0000
   509 O80     10.5332   3.7239  35.2433   Oco2      1 RES1   0.0000
   510 O81      9.3437  16.2190  21.5587   Oco2      1 RES1   0.0000
   511 O82     17.4085  16.2190  23.0283   Oco2      1 RES1   0.0000
   512 O83      9.3437  10.5332  23.0283   Oco2      1 RES1   0.0000
   513 O84     17.4085  10.5332  21.5587   Oco2      1 RES1   0.0000
   514 O87     12.6413   8.4911  25.1364   Oco2      1 RES1   0.0000
   515 O88     14.1109   0.4263  25.1364   Oco2      1 RES1   0.0000
   516 O89      1.6158  14.1109  26.3259   Oco2      1 RES1   0.0000
   517 O90      1.6158  12.6413  18.2611   Oco2      1 RES1   0.0000
   518 O91      7.3016  12.6413  26.3259   Oco2      1 RES1   0.0000
   519 O92      7.3016  14.1109  18.2611   Oco2      1 RES1   0.0000
   520 O93      8.4911   1.6158  31.9457   Oco2      1 RES1   0.0000
   521 O94      0.4263   1.6158  30.4761   Oco2      1 RES1   0.0000
   522 O95      8.4911   7.3016  30.4761   Oco2      1 RES1   0.0000
   523 O96      0.4263   7.3016  31.9457   Oco2      1 RES1   0.0000
   524 C1       2.8607  12.2900  18.2628   C.2       1 RES1   0.0000
   525 C2       6.0567  14.4622  18.2628   C.2       1 RES1   0.0000
   526 C3       6.0567  12.2900  26.3242   C.2       1 RES1   0.0000
   527 C4       2.8607  14.4622  26.3242   C.2       1 RES1   0.0000
   528 C5       0.4280   2.8607  30.1248   C.2       1 RES1   0.0000
   529 C6       0.4280   6.0567  32.2970   C.2       1 RES1   0.0000
   530 C7       8.4894   6.0567  30.1248   C.2       1 RES1   0.0000
   531 C8       8.4894   2.8607  32.2970   C.2       1 RES1   0.0000
   532 C9      12.2900   0.4280  20.6955   C.2       1 RES1   0.0000
   533 C10     14.4622   0.4280  23.8915   C.2       1 RES1   0.0000
   534 C11     12.2900   8.4894  23.8915   C.2       1 RES1   0.0000
   535 C12     14.4622   8.4894  20.6955   C.2       1 RES1   0.0000
   536 C13     14.9741   5.5448  35.2416   C.2       1 RES1   0.0000
   537 C14     11.7781   3.3726  35.2416   C.2       1 RES1   0.0000
   538 C15     11.7781   5.5448  27.1802   C.2       1 RES1   0.0000
   539 C16     14.9741   3.3726  27.1802   C.2       1 RES1   0.0000
   540 C17     17.4068  14.9741  23.3796   C.2       1 RES1   0.0000
   541 C18     17.4068  11.7781  21.2074   C.2       1 RES1   0.0000
   542 C19      9.3454  11.7781  23.3796   C.2       1 RES1   0.0000
   543 C20      9.3454  14.9741  21.2074   C.2       1 RES1   0.0000
   544 C21      5.5448  17.4068  32.8089   C.2       1 RES1   0.0000
   545 C22      3.3726  17.4068  29.6129   C.2       1 RES1   0.0000
   546 C23      5.5448   9.3454  29.6129   C.2       1 RES1   0.0000
   547 C24      3.3726   9.3454  32.8089   C.2       1 RES1   0.0000
   548 C25      3.8202  13.4742  18.2682   C.2       1 RES1   0.0000
   549 C26      5.0972  13.2780  18.2682   C.2       1 RES1   0.0000
   550 C27      5.0972  13.4742  26.3188   C.2       1 RES1   0.0000
   551 C28      3.8202  13.2780  26.3188   C.2       1 RES1   0.0000
   552 C29      0.4334   3.8202  31.3090   C.2       1 RES1   0.0000
   553 C30      0.4334   5.0972  31.1128   C.2       1 RES1   0.0000
   554 C31      8.4840   5.0972  31.3090   C.2       1 RES1   0.0000
   555 C32      8.4840   3.8202  31.1128   C.2       1 RES1   0.0000
   556 C33     13.4742   0.4334  21.6550   C.2       1 RES1   0.0000
   557 C34     13.2780   0.4334  22.9320   C.2       1 RES1   0.0000
   558 C35     13.4742   8.4840  22.9320   C.2       1 RES1   0.0000
   559 C36     13.2780   8.4840  21.6550   C.2       1 RES1   0.0000
   560 C37     14.0146   4.3606  35.2362   C.2       1 RES1   0.0000
   561 C38     12.7376   4.5568  35.2362   C.2       1 RES1   0.0000
   562 C39     12.7376   4.3606  27.1856   C.2       1 RES1   0.0000
   563 C40     14.0146   4.5568  27.1856   C.2       1 RES1   0.0000
   564 C41     17.4014  14.0146  22.1954   C.2       1 RES1   0.0000
   565 C42     17.4014  12.7376  22.3916   C.2       1 RES1   0.0000
   566 C43      9.3508  12.7376  22.1954   C.2       1 RES1   0.0000
   567 C44      9.3508  14.0146  22.3916   C.2       1 RES1   0.0000
   568 C45      4.3606  17.4014  31.8494   C.2       1 RES1   0.0000
   569 C46      4.5568  17.4014  30.5724   C.2       1 RES1   0.0000
   570 C47      4.3606   9.3508  30.5724   C.2       1 RES1   0.0000
   571 C48      4.5568   9.3508  31.8494   C.2       1 RES1   0.0000
   572 H1       3.4867  14.3427  18.2700   H         1 RES1   0.0000
   573 H2       5.4307  12.4095  18.2700   H         1 RES1   0.0000
   574 H3       5.4307  14.3427  26.3170   H         1 RES1   0.0000
   575 H4       3.4867  12.4095  26.3170   H         1 RES1   0.0000
   576 H5       0.4352   3.4867  32.1775   H         1 RES1   0.0000
   577 H6       0.4352   5.4307  30.2443   H         1 RES1   0.0000
   578 H7       8.4822   5.4307  32.1775   H         1 RES1   0.0000
   579 H8       8.4822   3.4867  30.2443   H         1 RES1   0.0000
   580 H9      14.3427   0.4352  21.3215   H         1 RES1   0.0000
   581 H10     12.4095   0.4352  23.2655   H         1 RES1   0.0000
   582 H11     14.3427   8.4822  23.2655   H         1 RES1   0.0000
   583 H12     12.4095   8.4822  21.3215   H         1 RES1   0.0000
   584 H13     14.3481   3.4921  35.2344   H         1 RES1   0.0000
   585 H14     12.4041   5.4253  35.2344   H         1 RES1   0.0000
   586 H15     12.4041   3.4921  27.1874   H         1 RES1   0.0000
   587 H16     14.3481   5.4253  27.1874   H         1 RES1   0.0000
   588 H17     17.3996  14.3481  21.3269   H         1 RES1   0.0000
   589 H18     17.3996  12.4041  23.2601   H         1 RES1   0.0000
   590 H19      9.3526  12.4041  21.3269   H         1 RES1   0.0000
   591 H20      9.3526  14.3481  23.2601   H         1 RES1   0.0000
   592 H21      3.4921  17.3996  32.1829   H         1 RES1   0.0000
   593 H22      5.4253  17.3996  30.2389   H         1 RES1   0.0000
   594 H23      3.4921   9.3526  30.2389   H         1 RES1   0.0000
   595 H24      5.4253   9.3526  32.1829   H         1 RES1   0.0000
   596 C49      3.3993   6.0603  17.8348   C.2       1 RES1   0.0000
   597 C50      5.5181   2.8571  17.8348   C.2       1 RES1   0.0000
   598 C51      5.5181   6.0603  26.7522   C.2       1 RES1   0.0000
   599 C52      3.3993   2.8571  26.7522   C.2       1 RES1   0.0000
   600 C53      0.0000   3.3993  23.8951   C.2       1 RES1   0.0000
   601 C54      0.0000   5.5181  20.6919   C.2       1 RES1   0.0000
   602 C55      8.9174   5.5181  23.8951   C.2       1 RES1   0.0000
   603 C56      8.9174   3.3993  20.6919   C.2       1 RES1   0.0000
   604 C57      6.0603   0.0000  21.2341   C.2       1 RES1   0.0000
   605 C58      2.8571   0.0000  23.3529   C.2       1 RES1   0.0000
   606 C59      6.0603   8.9174  23.3529   C.2       1 RES1   0.0000
   607 C60      2.8571   8.9174  21.2341   C.2       1 RES1   0.0000
   608 C61     14.4355  11.7745  35.6696   C.2       1 RES1   0.0000
   609 C62     12.3167  14.9777  35.6696   C.2       1 RES1   0.0000
   610 C63     12.3167  11.7745  26.7522   C.2       1 RES1   0.0000
   611 C64     14.4355  14.9777  26.7522   C.2       1 RES1   0.0000
   612 C65     17.8348  14.4355  29.6093   C.2       1 RES1   0.0000
   613 C66     17.8348  12.3167  32.8125   C.2       1 RES1   0.0000
   614 C67      8.9174  12.3167  29.6093   C.2       1 RES1   0.0000
   615 C68      8.9174  14.4355  32.8125   C.2       1 RES1   0.0000
   616 C69     11.7745  17.8348  32.2703   C.2       1 RES1   0.0000
   617 C70     14.9777  17.8348  30.1515   C.2       1 RES1   0.0000
   618 C71     11.7745   8.9174  30.1515   C.2       1 RES1   0.0000
   619 C72     14.9777   8.9174  32.2703   C.2       1 RES1   0.0000
   620 C73      4.5782   5.1097  17.8366   C.2       1 RES1   0.0000
   621 C74      4.3392   3.8077  17.8366   C.2       1 RES1   0.0000
   622 C75      4.3392   5.1097  26.7504   C.2       1 RES1   0.0000
   623 C76      4.5782   3.8077  26.7504   C.2       1 RES1   0.0000
   624 C77      0.0018   4.5782  22.9445   C.2       1 RES1   0.0000
   625 C78      0.0018   4.3392  21.6425   C.2       1 RES1   0.0000
   626 C79      8.9156   4.3392  22.9445   C.2       1 RES1   0.0000
   627 C80      8.9156   4.5782  21.6425   C.2       1 RES1   0.0000
   628 C81      5.1097   0.0018  22.4130   C.2       1 RES1   0.0000
   629 C82      3.8077   0.0018  22.1740   C.2       1 RES1   0.0000
   630 C83      5.1097   8.9156  22.1740   C.2       1 RES1   0.0000
   631 C84      3.8077   8.9156  22.4130   C.2       1 RES1   0.0000
   632 C85     13.2566  12.7251  35.6678   C.2       1 RES1   0.0000
   633 C86     13.4956  14.0271  35.6678   C.2       1 RES1   0.0000
   634 C87     13.4956  12.7251  26.7540   C.2       1 RES1   0.0000
   635 C88     13.2566  14.0271  26.7540   C.2       1 RES1   0.0000
   636 C89     17.8330  13.2566  30.5599   C.2       1 RES1   0.0000
   637 C90     17.8330  13.4956  31.8619   C.2       1 RES1   0.0000
   638 C91      8.9192  13.4956  30.5599   C.2       1 RES1   0.0000
   639 C92      8.9192  13.2566  31.8619   C.2       1 RES1   0.0000
   640 C93     12.7251  17.8330  31.0914   C.2       1 RES1   0.0000
   641 C94     14.0271  17.8330  31.3304   C.2       1 RES1   0.0000
   642 C95     12.7251   8.9192  31.3304   C.2       1 RES1   0.0000
   643 C96     14.0271   8.9192  31.0914   C.2       1 RES1   0.0000
   644 H25      5.4503   5.4325  17.8366   H         1 RES1   0.0000
   645 H26      3.4671   3.4849  17.8366   H         1 RES1   0.0000
   646 H27      3.4671   5.4325  26.7504   H         1 RES1   0.0000
   647 H28      5.4503   3.4849  26.7504   H         1 RES1   0.0000
   648 H29      0.0018   5.4503  23.2673   H         1 RES1   0.0000
   649 H30      0.0018   3.4671  21.3197   H         1 RES1   0.0000
   650 H31      8.9156   3.4671  23.2673   H         1 RES1   0.0000
   651 H32      8.9156   5.4503  21.3197   H         1 RES1   0.0000
   652 H33      5.4325   0.0018  23.2851   H         1 RES1   0.0000
   653 H34      3.4849   0.0018  21.3019   H         1 RES1   0.0000
   654 H35      5.4325   8.9156  21.3019   H         1 RES1   0.0000
   655 H36      3.4849   8.9156  23.2851   H         1 RES1   0.0000
   656 H37     12.3845  12.4023  35.6678   H         1 RES1   0.0000
   657 H38     14.3677  14.3499  35.6678   H         1 RES1   0.0000
   658 H39     14.3677  12.4023  26.7540   H         1 RES1   0.0000
   659 H40     12.3845  14.3499  26.7540   H         1 RES1   0.0000
   660 H41     17.8330  12.3845  30.2371   H         1 RES1   0.0000
   661 H42     17.8330  14.3677  32.1847   H         1 RES1   0.0000
   662 H43      8.9192  14.3677  30.2371   H         1 RES1   0.0000
   663 H44      8.9192  12.3845  32.1847   H         1 RES1   0.0000
   664 H45     12.4023  17.8330  30.2193   H         1 RES1   0.0000
   665 H46     14.3499  17.8330  32.2025   H         1 RES1   0.0000
   666 H47     12.4023   8.9192  32.2025   H         1 RES1   0.0000
   667 H48     14.3499   8.9192  30.2193   H         1 RES1   0.0000
   668 O97      1.3644  10.5529  34.5157   O3        1 RES1   0.0000
   669 O98      7.5530  16.1993  34.5157   O3        1 RES1   0.0000
   670 O99      7.5530  10.5529  27.9061   O3        1 RES1   0.0000
   671 O100     1.3644  16.1993  27.9061   O3        1 RES1   0.0000
   672 O101    16.6809   1.3644  28.3877   O3        1 RES1   0.0000
   673 O102    16.6809   7.5530  34.0341   O3        1 RES1   0.0000
   674 O103    10.0713   7.5530  28.3877   O3        1 RES1   0.0000
   675 O104    10.0713   1.3644  34.0341   O3        1 RES1   0.0000
   676 O105    10.5529  16.6809  19.1992   O3        1 RES1   0.0000
   677 O106    16.1993  16.6809  25.3878   O3        1 RES1   0.0000
   678 O107    10.5529  10.0713  25.3878   O3        1 RES1   0.0000
   679 O111    10.2818   7.2819  25.5983   O3        1 RES1   0.0000
   680 O112    16.4704   1.6355  25.5983   O3        1 RES1   0.0000
   681 O113     1.1539  16.4704  25.1167   O3        1 RES1   0.0000
   682 O114     1.1539  10.2818  19.4703   O3        1 RES1   0.0000
   683 O115     7.7635  10.2818  25.1167   O3        1 RES1   0.0000
   684 O116     7.7635  16.4704  19.4703   O3        1 RES1   0.0000
   685 O117     7.2819   1.1539  34.3052   O3        1 RES1   0.0000
   686 O118     1.6355   1.1539  28.1166   O3        1 RES1   0.0000
   687 O119     7.2819   7.7635  28.1166   O3        1 RES1   0.0000
   688 O155     7.5174   7.5174  25.3522   O3        1 RES1   0.0000
   689 O156     1.4000   1.4000  25.3522   O3        1 RES1   0.0000
   690 O157    16.4348  10.3174  34.2696   O3        1 RES1   0.0000
   691 O158    10.3174  16.4348  34.2696   O3        1 RES1   0.0000
   692 O159    10.3174  10.3174  28.1522   O3        1 RES1   0.0000
   693 O160    16.4348  16.4348  28.1522   O3        1 RES1   0.0000
   694 Zr1      2.4585   9.1159  35.8815   Zr        1 RES1   0.0000
   695 Zr1     20.2933   9.1159  18.0467   Zr        1 RES1   0.0000
   696 Zr2      6.4589  -0.1985  35.8815   Zr        1 RES1   0.0000
   697 Zr2      6.4589  17.6363  35.8815   Zr        1 RES1   0.0000
   698 Zr4      2.4585  -0.1985  26.5403   Zr        1 RES1   0.0000
   699 Zr4     20.2933  -0.1985  26.5403   Zr        1 RES1   0.0000
   700 Zr4     20.2933  17.6363  26.5403   Zr        1 RES1   0.0000
   701 Zr5      0.2119  20.2933  26.9507   Zr        1 RES1   0.0000
   702 Zr5     18.0467   2.4585  26.9507   Zr        1 RES1   0.0000
   703 Zr6     18.0467   6.4589  35.4711   Zr        1 RES1   0.0000
   704 Zr8      8.7055  20.2933  35.4711   Zr        1 RES1   0.0000
   705 Zr9      9.1159   0.2119  38.1281   Zr        1 RES1   0.0000
   706 Zr9      9.1159  18.0467  20.2933   Zr        1 RES1   0.0000
   707 Zr10    -0.1985   0.2119  24.2937   Zr        1 RES1   0.0000
   708 Zr10    -0.1985  18.0467  24.2937   Zr        1 RES1   0.0000
   709 Zr10    17.6363  18.0467  24.2937   Zr        1 RES1   0.0000
   710 Zr12    -0.1985   8.7055  38.1281   Zr        1 RES1   0.0000
   711 Zr12    17.6363   8.7055  38.1281   Zr        1 RES1   0.0000
   712 Zr13    -2.4585   8.7189  35.4577   Zr        1 RES1   0.0000
   713 Zr14    11.3759  18.0333  35.4577   Zr        1 RES1   0.0000
   714 Zr16    -2.4585   0.1985  26.9641   Zr        1 RES1   0.0000
   715 Zr16    -2.4585  18.0333  26.9641   Zr        1 RES1   0.0000
   716 Zr16    15.3763  18.0333  26.9641   Zr        1 RES1   0.0000
   717 Zr17    -0.2119  15.3763  26.5537   Zr        1 RES1   0.0000
   718 Zr17    17.6229  -2.4585  26.5537   Zr        1 RES1   0.0000
   719 Zr18    -0.2119  11.3759  35.8681   Zr        1 RES1   0.0000
   720 Zr18    17.6229  11.3759  35.8681   Zr        1 RES1   0.0000
   721 Zr20     9.1293  -2.4585  35.8681   Zr        1 RES1   0.0000
   722 Zr20     9.1293  15.3763  35.8681   Zr        1 RES1   0.0000
   723 Zr21     8.7189  -0.2119  33.2111   Zr        1 RES1   0.0000
   724 Zr22     0.1985  -0.2119  29.2107   Zr        1 RES1   0.0000
   725 Zr22    18.0333  -0.2119  29.2107   Zr        1 RES1   0.0000
   726 Zr22    18.0333  17.6229  29.2107   Zr        1 RES1   0.0000
   727 Zr24    18.0333   9.1293  33.2111   Zr        1 RES1   0.0000
   728 O2       5.1899  19.4667  17.9775   Oco2      1 RES1   0.0000
   729 O4       3.7275  19.4667  26.6095   Oco2      1 RES1   0.0000
   730 O6       0.1427   5.1899  37.3015   Oco2      1 RES1   0.0000
   731 O8       8.7747   3.7275  37.3015   Oco2      1 RES1   0.0000
   732 O10     19.4667   0.1427  23.0247   Oco2      1 RES1   0.0000
   733 O12     19.4667   8.7747  21.5623   Oco2      1 RES1   0.0000
   734 O14     12.6449  -1.6319  35.5269   O.2       1 RES1   0.0000
   735 O16     14.1073  -1.6319  26.8949   O.2       1 RES1   0.0000
   736 O22     -1.6319  17.6921  30.4797   O.2       1 RES1   0.0000
   737 O24     -1.6319   9.0601  31.9421   O.2       1 RES1   0.0000
   738 O50      5.5359  17.7046  20.0873   Oco2      1 RES1   0.0000
   739 O52      3.3815  17.7046  24.4997   Oco2      1 RES1   0.0000
   740 O54      2.2525   5.5359  35.5394   Oco2      1 RES1   0.0000
   741 O56      6.6649   3.3815  35.5394   Oco2      1 RES1   0.0000
   742 O58     17.7046   2.2525  23.3707   Oco2      1 RES1   0.0000
   743 O60     17.7046   6.6649  21.2163   Oco2      1 RES1   0.0000
   744 O62     12.2989   0.1302  33.4171   O.2       1 RES1   0.0000
   745 O64     14.4533   0.1302  29.0047   O.2       1 RES1   0.0000
   746 O70      0.1302  15.5823  30.1337   O.2       1 RES1   0.0000
   747 O72      0.1302  11.1699  32.2881   O.2       1 RES1   0.0000
   748 O77     -1.6158   3.7239  27.1785   O.2       1 RES1   0.0000
   749 O78     -1.6158   5.1935  35.2433   O.2       1 RES1   0.0000
   750 O81      9.3437  -1.6158  21.5587   O.2       1 RES1   0.0000
   751 O82     17.4085  -1.6158  23.0283   O.2       1 RES1   0.0000
   752 O85     14.1109   8.4911  37.2854   Oco2      1 RES1   0.0000
   753 O86     12.6413   0.4263  37.2854   Oco2      1 RES1   0.0000
   754 O89     19.4506  14.1109  26.3259   Oco2      1 RES1   0.0000
   755 O90     19.4506  12.6413  18.2611   Oco2      1 RES1   0.0000
   756 O93      8.4911  19.4506  31.9457   Oco2      1 RES1   0.0000
   757 O94      0.4263  19.4506  30.4761   Oco2      1 RES1   0.0000
   758 O97     19.1992  10.5529  16.6809   O3        1 RES1   0.0000
   759 O100    19.1992  16.1993  27.9061   O3        1 RES1   0.0000
   760 O101    -1.1539   1.3644  28.3877   O3        1 RES1   0.0000
   761 O101    -1.1539  19.1992  28.3877   O3        1 RES1   0.0000
   762 O102    -1.1539   7.5530  34.0341   O3        1 RES1   0.0000
   763 O104    10.0713  19.1992  34.0341   O3        1 RES1   0.0000
   764 O105    10.5529  -1.1539  37.0340   O3        1 RES1   0.0000
   765 O106    16.1993  -1.1539  25.3878   O3        1 RES1   0.0000
   766 O108    16.1993  10.0713  37.0340   O3        1 RES1   0.0000
   767 O109    -1.3644   7.2819  36.8235   O3        1 RES1   0.0000
   768 O109    16.4704   7.2819  36.8235   O3        1 RES1   0.0000
   769 O110    10.2818   1.6355  36.8235   O3        1 RES1   0.0000
   770 O112    -1.3644   1.6355  25.5983   O3        1 RES1   0.0000
   771 O113    18.9887  -1.3644  25.1167   O3        1 RES1   0.0000
   772 O113    18.9887  16.4704  25.1167   O3        1 RES1   0.0000
   773 O114    18.9887  10.2818  19.4703   O3        1 RES1   0.0000
   774 O116     7.7635  -1.3644  19.4703   O3        1 RES1   0.0000
   775 O117     7.2819  18.9887  34.3052   O3        1 RES1   0.0000
   776 O118     1.6355  18.9887  28.1166   O3        1 RES1   0.0000
   777 O120     1.6355   7.7635  16.4704   O3        1 RES1   0.0000
   778 O153     1.4000   7.5174  37.0696   O3        1 RES1   0.0000
   779 O153    19.2348   7.5174  19.2348   O3        1 RES1   0.0000
   780 O154     7.5174   1.4000  37.0696   O3        1 RES1   0.0000
   781 O154     7.5174  19.2348  19.2348   O3        1 RES1   0.0000
   782 O156     1.4000  19.2348  25.3522   O3        1 RES1   0.0000
   783 O156    19.2348   1.4000  25.3522   O3        1 RES1   0.0000
   784 O157    -1.4000  10.3174  34.2696   O3        1 RES1   0.0000
   785 O158    10.3174  -1.4000  34.2696   O3        1 RES1   0.0000
   786 O160    -1.4000  16.4348  28.1522   O3        1 RES1   0.0000
   787 O160    16.4348  -1.4000  28.1522   O3        1 RES1   0.0000
   788 Zr3      6.4589   9.1159  44.3751   Zr        1 RES1   0.0000
   789 Zr4      2.4585  17.6363  44.3751   Zr        1 RES1   0.0000
   790 Zr5      0.2119   2.4585  44.7855   Zr        1 RES1   0.0000
   791 Zr6      0.2119   6.4589  53.3059   Zr        1 RES1   0.0000
   792 Zr7      8.7055   6.4589  44.7855   Zr        1 RES1   0.0000
   793 Zr8      8.7055   2.4585  53.3059   Zr        1 RES1   0.0000
   794 Zr10    17.6363   0.2119  42.1285   Zr        1 RES1   0.0000
   795 Zr11     9.1159   8.7055  42.1285   Zr        1 RES1   0.0000
   796 Zr13    15.3763   8.7189  53.2925   Zr        1 RES1   0.0000
   797 Zr14    11.3759   0.1985  53.2925   Zr        1 RES1   0.0000
   798 Zr15    11.3759   8.7189  44.7989   Zr        1 RES1   0.0000
   799 Zr16    15.3763   0.1985  44.7989   Zr        1 RES1   0.0000
   800 Zr17    17.6229  15.3763  44.3885   Zr        1 RES1   0.0000
   801 Zr19     9.1293  11.3759  44.3885   Zr        1 RES1   0.0000
   802 Zr21     8.7189  17.6229  51.0459   Zr        1 RES1   0.0000
   803 Zr22     0.1985  17.6229  47.0455   Zr        1 RES1   0.0000
   804 Zr23     8.7189   9.1293  47.0455   Zr        1 RES1   0.0000
   805 Zr24     0.1985   9.1293  51.0459   Zr        1 RES1   0.0000
   806 O1       3.7275   7.2855  35.8123   Oco2      1 RES1   0.0000
   807 O2       5.1899   1.6319  35.8123   Oco2      1 RES1   0.0000
   808 O3       5.1899   7.2855  44.4443   Oco2      1 RES1   0.0000
   809 O4       3.7275   1.6319  44.4443   Oco2      1 RES1   0.0000
   810 O5       0.1427   3.7275  42.9551   Oco2      1 RES1   0.0000
   811 O7       8.7747   5.1899  42.9551   Oco2      1 RES1   0.0000
   812 O9       7.2855   0.1427  39.3971   Oco2      1 RES1   0.0000
   813 O10      1.6319   0.1427  40.8595   Oco2      1 RES1   0.0000
   814 O11      7.2855   8.7747  40.8595   Oco2      1 RES1   0.0000
   815 O12      1.6319   8.7747  39.3971   Oco2      1 RES1   0.0000
   816 O13     14.1073  10.5493  53.3617   Oco2      1 RES1   0.0000
   817 O14     12.6449  16.2029  53.3617   Oco2      1 RES1   0.0000
   818 O15     12.6449  10.5493  44.7297   Oco2      1 RES1   0.0000
   819 O16     14.1073  16.2029  44.7297   Oco2      1 RES1   0.0000
   820 O17     17.6921  14.1073  46.2189   Oco2      1 RES1   0.0000
   821 O18     17.6921  12.6449  51.8725   Oco2      1 RES1   0.0000
   822 O19      9.0601  12.6449  46.2189   Oco2      1 RES1   0.0000
   823 O20      9.0601  14.1073  51.8725   Oco2      1 RES1   0.0000
   824 O21     10.5493  17.6921  49.7769   Oco2      1 RES1   0.0000
   825 O22     16.2029  17.6921  48.3145   Oco2      1 RES1   0.0000
   826 O23     10.5493   9.0601  48.3145   Oco2      1 RES1   0.0000
   827 O24     16.2029   9.0601  49.7769   Oco2      1 RES1   0.0000
   828 O25      3.3957  11.1396  36.1083   Oco2      1 RES1   0.0000
   829 O26      5.5217  15.6126  36.1083   Oco2      1 RES1   0.0000
   830 O27      5.5217  11.1396  44.1483   Oco2      1 RES1   0.0000
   831 O28      3.3957  15.6126  44.1483   Oco2      1 RES1   0.0000
   832 O29      0.4387   3.3957  46.8092   Oco2      1 RES1   0.0000
   833 O30      0.4387   5.5217  51.2822   Oco2      1 RES1   0.0000
   834 O31      8.4787   5.5217  46.8092   Oco2      1 RES1   0.0000
   835 O32      8.4787   3.3957  51.2822   Oco2      1 RES1   0.0000
   836 O33     11.1396   0.4387  39.0653   Oco2      1 RES1   0.0000
   837 O34     15.6126   0.4387  41.1913   Oco2      1 RES1   0.0000
   838 O35     11.1396   8.4787  41.1913   Oco2      1 RES1   0.0000
   839 O36     15.6126   8.4787  39.0653   Oco2      1 RES1   0.0000
   840 O37     14.4391   6.6952  53.0657   Oco2      1 RES1   0.0000
   841 O38     12.3131   2.2222  53.0657   Oco2      1 RES1   0.0000
   842 O39     12.3131   6.6952  45.0257   Oco2      1 RES1   0.0000
   843 O40     14.4391   2.2222  45.0257   Oco2      1 RES1   0.0000
   844 O41     17.3961  14.4391  42.3648   Oco2      1 RES1   0.0000
   845 O42     17.3961  12.3131  37.8918   Oco2      1 RES1   0.0000
   846 O43      9.3561  12.3131  42.3648   Oco2      1 RES1   0.0000
   847 O44      9.3561  14.4391  37.8918   Oco2      1 RES1   0.0000
   848 O45      6.6952  17.3961  50.1087   Oco2      1 RES1   0.0000
   849 O46      2.2222  17.3961  47.9827   Oco2      1 RES1   0.0000
   850 O47      6.6952   9.3561  47.9827   Oco2      1 RES1   0.0000
   851 O48      2.2222   9.3561  50.1087   Oco2      1 RES1   0.0000
   852 O49      3.3815   9.0476  37.9221   Oco2      1 RES1   0.0000
   853 O50      5.5359  -0.1302  37.9221   Oco2      1 RES1   0.0000
   854 O51      5.5359   9.0476  42.3345   Oco2      1 RES1   0.0000
   855 O52      3.3815  -0.1302  42.3345   Oco2      1 RES1   0.0000
   856 O53      2.2525   3.3815  44.7172   Oco2      1 RES1   0.0000
   857 O55      6.6649   5.5359  44.7172   Oco2      1 RES1   0.0000
   858 O57      9.0476   2.2525  39.0511   Oco2      1 RES1   0.0000
   859 O58     -0.1302   2.2525  41.2055   Oco2      1 RES1   0.0000
   860 O59      9.0476   6.6649  41.2055   Oco2      1 RES1   0.0000
   861 O60     -0.1302   6.6649  39.0511   Oco2      1 RES1   0.0000
   862 O61     14.4533   8.7872  51.2519   Oco2      1 RES1   0.0000
   863 O62     12.2989  17.9650  51.2519   Oco2      1 RES1   0.0000
   864 O63     12.2989   8.7872  46.8395   Oco2      1 RES1   0.0000
   865 O64     14.4533  17.9650  46.8395   Oco2      1 RES1   0.0000
   866 O65     15.5823  14.4533  44.4568   Oco2      1 RES1   0.0000
   867 O66     15.5823  12.2989  53.6346   Oco2      1 RES1   0.0000
   868 O67     11.1699  12.2989  44.4568   Oco2      1 RES1   0.0000
   869 O68     11.1699  14.4533  53.6346   Oco2      1 RES1   0.0000
   870 O69      8.7872  15.5823  50.1229   Oco2      1 RES1   0.0000
   871 O70     17.9650  15.5823  47.9685   Oco2      1 RES1   0.0000
   872 O71      8.7872  11.1699  47.9685   Oco2      1 RES1   0.0000
   873 O72     17.9650  11.1699  50.1229   Oco2      1 RES1   0.0000
   874 O73      3.7239   9.3437  51.8886   Oco2      1 RES1   0.0000
   875 O74      5.1935  17.4085  51.8886   Oco2      1 RES1   0.0000
   876 O75      5.1935   9.3437  46.2028   Oco2      1 RES1   0.0000
   877 O76      3.7239  17.4085  46.2028   Oco2      1 RES1   0.0000
   878 O77     16.2190   3.7239  45.0133   Oco2      1 RES1   0.0000
   879 O78     16.2190   5.1935  53.0781   Oco2      1 RES1   0.0000
   880 O79     10.5332   5.1935  45.0133   Oco2      1 RES1   0.0000
   881 O80     10.5332   3.7239  53.0781   Oco2      1 RES1   0.0000
   882 O81      9.3437  16.2190  39.3935   Oco2      1 RES1   0.0000
   883 O82     17.4085  16.2190  40.8631   Oco2      1 RES1   0.0000
   884 O83      9.3437  10.5332  40.8631   Oco2      1 RES1   0.0000
   885 O84     17.4085  10.5332  39.3935   Oco2      1 RES1   0.0000
   886 O87     12.6413   8.4911  42.9712   Oco2      1 RES1   0.0000
   887 O88     14.1109   0.4263  42.9712   Oco2      1 RES1   0.0000
   888 O89      1.6158  14.1109  44.1607   Oco2      1 RES1   0.0000
   889 O90      1.6158  12.6413  36.0959   Oco2      1 RES1   0.0000
   890 O91      7.3016  12.6413  44.1607   Oco2      1 RES1   0.0000
   891 O92      7.3016  14.1109  36.0959   Oco2      1 RES1   0.0000
   892 O93      8.4911   1.6158  49.7805   Oco2      1 RES1   0.0000
   893 O94      0.4263   1.6158  48.3109   Oco2      1 RES1   0.0000
   894 O95      8.4911   7.3016  48.3109   Oco2      1 RES1   0.0000
   895 O96      0.4263   7.3016  49.7805   Oco2      1 RES1   0.0000
   896 C1       2.8607  12.2900  36.0976   C.2       1 RES1   0.0000
   897 C2       6.0567  14.4622  36.0976   C.2       1 RES1   0.0000
   898 C3       6.0567  12.2900  44.1590   C.2       1 RES1   0.0000
   899 C4       2.8607  14.4622  44.1590   C.2       1 RES1   0.0000
   900 C5       0.4280   2.8607  47.9596   C.2       1 RES1   0.0000
   901 C6       0.4280   6.0567  50.1318   C.2       1 RES1   0.0000
   902 C7       8.4894   6.0567  47.9596   C.2       1 RES1   0.0000
   903 C8       8.4894   2.8607  50.1318   C.2       1 RES1   0.0000
   904 C9      12.2900   0.4280  38.5303   C.2       1 RES1   0.0000
   905 C10     14.4622   0.4280  41.7263   C.2       1 RES1   0.0000
   906 C11     12.2900   8.4894  41.7263   C.2       1 RES1   0.0000
   907 C12     14.4622   8.4894  38.5303   C.2       1 RES1   0.0000
   908 C13     14.9741   5.5448  53.0764   C.2       1 RES1   0.0000
   909 C14     11.7781   3.3726  53.0764   C.2       1 RES1   0.0000
   910 C15     11.7781   5.5448  45.0150   C.2       1 RES1   0.0000
   911 C16     14.9741   3.3726  45.0150   C.2       1 RES1   0.0000
   912 C17     17.4068  14.9741  41.2144   C.2       1 RES1   0.0000
   913 C18     17.4068  11.7781  39.0422   C.2       1 RES1   0.0000
   914 C19      9.3454  11.7781  41.2144   C.2       1 RES1   0.0000
   915 C20      9.3454  14.9741  39.0422   C.2       1 RES1   0.0000
   916 C21      5.5448  17.4068  50.6437   C.2       1 RES1   0.0000
   917 C22      3.3726  17.4068  47.4477   C.2       1 RES1   0.0000
   918 C23      5.5448   9.3454  47.4477   C.2       1 RES1   0.0000
   919 C24      3.3726   9.3454  50.6437   C.2       1 RES1   0.0000
   920 C25      3.8202  13.4742  36.1030   C.2       1 RES1   0.0000
   921 C26      5.0972  13.2780  36.1030   C.2       1 RES1   0.0000
   922 C27      5.0972  13.4742  44.1536   C.2       1 RES1   0.0000
   923 C28      3.8202  13.2780  44.1536   C.2       1 RES1   0.0000
   924 C29      0.4334   3.8202  49.1438   C.2       1 RES1   0.0000
   925 C30      0.4334   5.0972  48.9476   C.2       1 RES1   0.0000
   926 C31      8.4840   5.0972  49.1438   C.2       1 RES1   0.0000
   927 C32      8.4840   3.8202  48.9476   C.2       1 RES1   0.0000
   928 C33     13.4742   0.4334  39.4898   C.2       1 RES1   0.0000
   929 C34     13.2780   0.4334  40.7668   C.2       1 RES1   0.0000
   930 C35     13.4742   8.4840  40.7668   C.2       1 RES1   0.0000
   931 C36     13.2780   8.4840  39.4898   C.2       1 RES1   0.0000
   932 C37     14.0146   4.3606  53.0710   C.2       1 RES1   0.0000
   933 C38     12.7376   4.5568  53.0710   C.2       1 RES1   0.0000
   934 C39     12.7376   4.3606  45.0204   C.2       1 RES1   0.0000
   935 C40     14.0146   4.5568  45.0204   C.2       1 RES1   0.0000
   936 C41     17.4014  14.0146  40.0302   C.2       1 RES1   0.0000
   937 C42     17.4014  12.7376  40.2264   C.2       1 RES1   0.0000
   938 C43      9.3508  12.7376  40.0302   C.2       1 RES1   0.0000
   939 C44      9.3508  14.0146  40.2264   C.2       1 RES1   0.0000
   940 C45      4.3606  17.4014  49.6842   C.2       1 RES1   0.0000
   941 C46      4.5568  17.4014  48.4072   C.2       1 RES1   0.0000
   942 C47      4.3606   9.3508  48.4072   C.2       1 RES1   0.0000
   943 C48      4.5568   9.3508  49.6842   C.2       1 RES1   0.0000
   944 H1       3.4867  14.3427  36.1048   H         1 RES1   0.0000
   945 H2       5.4307  12.4095  36.1048   H         1 RES1   0.0000
   946 H3       5.4307  14.3427  44.1518   H         1 RES1   0.0000
   947 H4       3.4867  12.4095  44.1518   H         1 RES1   0.0000
   948 H5       0.4352   3.4867  50.0123   H         1 RES1   0.0000
   949 H6       0.4352   5.4307  48.0791   H         1 RES1   0.0000
   950 H7       8.4822   5.4307  50.0123   H         1 RES1   0.0000
   951 H8       8.4822   3.4867  48.0791   H         1 RES1   0.0000
   952 H9      14.3427   0.4352  39.1563   H         1 RES1   0.0000
   953 H10     12.4095   0.4352  41.1003   H         1 RES1   0.0000
   954 H11     14.3427   8.4822  41.1003   H         1 RES1   0.0000
   955 H12     12.4095   8.4822  39.1563   H         1 RES1   0.0000
   956 H13     14.3481   3.4921  53.0692   H         1 RES1   0.0000
   957 H14     12.4041   5.4253  53.0692   H         1 RES1   0.0000
   958 H15     12.4041   3.4921  45.0222   H         1 RES1   0.0000
   959 H16     14.3481   5.4253  45.0222   H         1 RES1   0.0000
   960 H17     17.3996  14.3481  39.1617   H         1 RES1   0.0000
   961 H18     17.3996  12.4041  41.0949   H         1 RES1   0.0000
   962 H19      9.3526  12.4041  39.1617   H         1 RES1   0.0000
   963 H20      9.3526  14.3481  41.0949   H         1 RES1   0.0000
   964 H21      3.4921  17.3996  50.0177   H         1 RES1   0.0000
   965 H22      5.4253  17.3996  48.0737   H         1 RES1   0.0000
   966 H23      3.4921   9.3526  48.0737   H         1 RES1   0.0000
   967 H24      5.4253   9.3526  50.0177   H         1 RES1   0.0000
   968 C49      3.3993   6.0603  35.6696   C.2       1 RES1   0.0000
   969 C50      5.5181   2.8571  35.6696   C.2       1 RES1   0.0000
   970 C51      5.5181   6.0603  44.5870   C.2       1 RES1   0.0000
   971 C52      3.3993   2.8571  44.5870   C.2       1 RES1   0.0000
   972 C53      0.0000   3.3993  41.7299   C.2       1 RES1   0.0000
   973 C54      0.0000   5.5181  38.5267   C.2       1 RES1   0.0000
   974 C55      8.9174   5.5181  41.7299   C.2       1 RES1   0.0000
   975 C56      8.9174   3.3993  38.5267   C.2       1 RES1   0.0000
   976 C57      6.0603   0.0000  39.0689   C.2       1 RES1   0.0000
   977 C58      2.8571   0.0000  41.1877   C.2       1 RES1   0.0000
   978 C59      6.0603   8.9174  41.1877   C.2       1 RES1   0.0000
   979 C60      2.8571   8.9174  39.0689   C.2       1 RES1   0.0000
   980 C61     14.4355  11.7745  53.5044   C.2       1 RES1   0.0000
   981 C62     12.3167  14.9777  53.5044   C.2       1 RES1   0.0000
   982 C63     12.3167  11.7745  44.5870   C.2       1 RES1   0.0000
   983 C64     14.4355  14.9777  44.5870   C.2       1 RES1   0.0000
   984 C65     17.8348  14.4355  47.4441   C.2       1 RES1   0.0000
   985 C66     17.8348  12.3167  50.6473   C.2       1 RES1   0.0000
   986 C67      8.9174  12.3167  47.4441   C.2       1 RES1   0.0000
   987 C68      8.9174  14.4355  50.6473   C.2       1 RES1   0.0000
   988 C69     11.7745  17.8348  50.1051   C.2       1 RES1   0.0000
   989 C70     14.9777  17.8348  47.9863   C.2       1 RES1   0.0000
   990 C71     11.7745   8.9174  47.9863   C.2       1 RES1   0.0000
   991 C72     14.9777   8.9174  50.1051   C.2       1 RES1   0.0000
   992 C73      4.5782   5.1097  35.6714   C.2       1 RES1   0.0000
   993 C74      4.3392   3.8077  35.6714   C.2       1 RES1   0.0000
   994 C75      4.3392   5.1097  44.5852   C.2       1 RES1   0.0000
   995 C76      4.5782   3.8077  44.5852   C.2       1 RES1   0.0000
   996 C77      0.0018   4.5782  40.7793   C.2       1 RES1   0.0000
   997 C78      0.0018   4.3392  39.4773   C.2       1 RES1   0.0000
   998 C79      8.9156   4.3392  40.7793   C.2       1 RES1   0.0000
   999 C80      8.9156   4.5782  39.4773   C.2       1 RES1   0.0000
  1000 C81      5.1097   0.0018  40.2478   C.2       1 RES1   0.0000
  1001 C82      3.8077   0.0018  40.0088   C.2       1 RES1   0.0000
  1002 C83      5.1097   8.9156  40.0088   C.2       1 RES1   0.0000
  1003 C84      3.8077   8.9156  40.2478   C.2       1 RES1   0.0000
  1004 C85     13.2566  12.7251  53.5026   C.2       1 RES1   0.0000
  1005 C86     13.4956  14.0271  53.5026   C.2       1 RES1   0.0000
  1006 C87     13.4956  12.7251  44.5888   C.2       1 RES1   0.0000
  1007 C88     13.2566  14.0271  44.5888   C.2       1 RES1   0.0000
  1008 C89     17.8330  13.2566  48.3947   C.2       1 RES1   0.0000
  1009 C90     17.8330  13.4956  49.6967   C.2       1 RES1   0.0000
  1010 C91      8.9192  13.4956  48.3947   C.2       1 RES1   0.0000
  1011 C92      8.9192  13.2566  49.6967   C.2       1 RES1   0.0000
  1012 C93     12.7251  17.8330  48.9262   C.2       1 RES1   0.0000
  1013 C94     14.0271  17.8330  49.1652   C.2       1 RES1   0.0000
  1014 C95     12.7251   8.9192  49.1652   C.2       1 RES1   0.0000
  1015 C96     14.0271   8.9192  48.9262   C.2       1 RES1   0.0000
  1016 H25      5.4503   5.4325  35.6714   H         1 RES1   0.0000
  1017 H26      3.4671   3.4849  35.6714   H         1 RES1   0.0000
  1018 H27      3.4671   5.4325  44.5852   H         1 RES1   0.0000
  1019 H28      5.4503   3.4849  44.5852   H         1 RES1   0.0000
  1020 H29      0.0018   5.4503  41.1021   H         1 RES1   0.0000
  1021 H30      0.0018   3.4671  39.1545   H         1 RES1   0.0000
  1022 H31      8.9156   3.4671  41.1021   H         1 RES1   0.0000
  1023 H32      8.9156   5.4503  39.1545   H         1 RES1   0.0000
  1024 H33      5.4325   0.0018  41.1199   H         1 RES1   0.0000
  1025 H34      3.4849   0.0018  39.1367   H         1 RES1   0.0000
  1026 H35      5.4325   8.9156  39.1367   H         1 RES1   0.0000
  1027 H36      3.4849   8.9156  41.1199   H         1 RES1   0.0000
  1028 H37     12.3845  12.4023  53.5026   H         1 RES1   0.0000
  1029 H38     14.3677  14.3499  53.5026   H         1 RES1   0.0000
  1030 H39     14.3677  12.4023  44.5888   H         1 RES1   0.0000
  1031 H40     12.3845  14.3499  44.5888   H         1 RES1   0.0000
  1032 H41     17.8330  12.3845  48.0719   H         1 RES1   0.0000
  1033 H42     17.8330  14.3677  50.0195   H         1 RES1   0.0000
  1034 H43      8.9192  14.3677  48.0719   H         1 RES1   0.0000
  1035 H44      8.9192  12.3845  50.0195   H         1 RES1   0.0000
  1036 H45     12.4023  17.8330  48.0541   H         1 RES1   0.0000
  1037 H46     14.3499  17.8330  50.0373   H         1 RES1   0.0000
  1038 H47     12.4023   8.9192  50.0373   H         1 RES1   0.0000
  1039 H48     14.3499   8.9192  48.0541   H         1 RES1   0.0000
  1040 O97      1.3644  10.5529  52.3505   O3        1 RES1   0.0000
  1041 O98      7.5530  16.1993  52.3505   O3        1 RES1   0.0000
  1042 O99      7.5530  10.5529  45.7409   O3        1 RES1   0.0000
  1043 O100     1.3644  16.1993  45.7409   O3        1 RES1   0.0000
  1044 O101    16.6809   1.3644  46.2225   O3        1 RES1   0.0000
  1045 O102    16.6809   7.5530  51.8689   O3        1 RES1   0.0000
  1046 O103    10.0713   7.5530  46.2225   O3        1 RES1   0.0000
  1047 O104    10.0713   1.3644  51.8689   O3        1 RES1   0.0000
  1048 O105    10.5529  16.6809  37.0340   O3        1 RES1   0.0000
  1049 O106    16.1993  16.6809  43.2226   O3        1 RES1   0.0000
  1050 O107    10.5529  10.0713  43.2226   O3        1 RES1   0.0000
  1051 O111    10.2818   7.2819  43.4331   O3        1 RES1   0.0000
  1052 O112    16.4704   1.6355  43.4331   O3        1 RES1   0.0000
  1053 O113     1.1539  16.4704  42.9515   O3        1 RES1   0.0000
  1054 O114     1.1539  10.2818  37.3051   O3        1 RES1   0.0000
  1055 O115     7.7635  10.2818  42.9515   O3        1 RES1   0.0000
  1056 O116     7.7635  16.4704  37.3051   O3        1 RES1   0.0000
  1057 O117     7.2819   1.1539  52.1400   O3        1 RES1   0.0000
  1058 O118     1.6355   1.1539  45.9514   O3        1 RES1   0.0000
  1059 O119     7.2819   7.7635  45.9514   O3        1 RES1   0.0000
  1060 O155     7.5174   7.5174  43.1870   O3        1 RES1   0.0000
  1061 O156     1.4000   1.4000  43.1870   O3        1 RES1   0.0000
  1062 O157    16.4348  10.3174  52.1044   O3        1 RES1   0.0000
  1063 O158    10.3174  16.4348  52.1044   O3        1 RES1   0.0000
  1064 O159    10.3174  10.3174  45.9870   O3        1 RES1   0.0000
  1065 O160    16.4348  16.4348  45.9870   O3        1 RES1   0.0000
  1066 Zr1      2.4585   9.1159  53.7163   Zr        1 RES1   0.0000
  1067 Zr1     20.2933   9.1159  35.8815   Zr        1 RES1   0.0000
  1068 Zr2      6.4589  -0.1985  53.7163   Zr        1 RES1   0.0000
  1069 Zr2      6.4589  17.6363  53.7163   Zr        1 RES1   0.0000
  1070 Zr4      2.4585  -0.1985  44.3751   Zr        1 RES1   0.0000
  1071 Zr4     20.2933  -0.1985  44.3751   Zr        1 RES1   0.0000
  1072 Zr4     20.2933  17.6363  44.3751   Zr        1 RES1   0.0000
  1073 Zr5      0.2119  20.2933  44.7855   Zr        1 RES1   0.0000
  1074 Zr5     18.0467   2.4585  44.7855   Zr        1 RES1   0.0000
  1075 Zr6     18.0467   6.4589  53.3059   Zr        1 RES1   0.0000
  1076 Zr8      8.7055  20.2933  53.3059   Zr        1 RES1   0.0000
  1077 Zr9      9.1159   0.2119  55.9629   Zr        1 RES1   0.0000
  1078 Zr9      9.1159  18.0467  38.1281   Zr        1 RES1   0.0000
  1079 Zr10    -0.1985   0.2119  42.1285   Zr        1 RES1   0.0000
  1080 Zr10    -0.1985  18.0467  42.1285   Zr        1 RES1   0.0000
  1081 Zr10    17.6363  18.0467  42.1285   Zr        1 RES1   0.0000
  1082 Zr12    -0.1985   8.7055  55.9629   Zr        1 RES1   0.0000
  1083 Zr12    17.6363   8.7055  55.9629   Zr        1 RES1   0.0000
  1084 Zr13    -2.4585   8.7189  53.2925   Zr        1 RES1   0.0000
  1085 Zr14    11.3759  18.0333  53.2925   Zr        1 RES1   0.0000
  1086 Zr16    -2.4585   0.1985  44.7989   Zr        1 RES1   0.0000
  1087 Zr16    -2.4585  18.0333  44.7989   Zr        1 RES1   0.0000
  1088 Zr16    15.3763  18.0333  44.7989   Zr        1 RES1   0.0000
  1089 Zr17    -0.2119  15.3763  44.3885   Zr        1 RES1   0.0000
  1090 Zr17    17.6229  -2.4585  44.3885   Zr        1 RES1   0.0000
  1091 Zr18    -0.2119  11.3759  53.7029   Zr        1 RES1   0.0000
  1092 Zr18    17.6229  11.3759  53.7029   Zr        1 RES1   0.0000
  1093 Zr20     9.1293  -2.4585  53.7029   Zr        1 RES1   0.0000
  1094 Zr20     9.1293  15.3763  53.7029   Zr        1 RES1   0.0000
  1095 Zr21     8.7189  -0.2119  51.0459   Zr        1 RES1   0.0000
  1096 Zr22     0.1985  -0.2119  47.0455   Zr        1 RES1   0.0000
  1097 Zr22    18.0333  -0.2119  47.0455   Zr        1 RES1   0.0000
  1098 Zr22    18.0333  17.6229  47.0455   Zr        1 RES1   0.0000
  1099 Zr24    18.0333   9.1293  51.0459   Zr        1 RES1   0.0000
  1100 O2       5.1899  19.4667  35.8123   Oco2      1 RES1   0.0000
  1101 O4       3.7275  19.4667  44.4443   Oco2      1 RES1   0.0000
  1102 O6       0.1427   5.1899  55.1363   O.2       1 RES1   0.0000
  1103 O8       8.7747   3.7275  55.1363   O.2       1 RES1   0.0000
  1104 O10     19.4667   0.1427  40.8595   Oco2      1 RES1   0.0000
  1105 O12     19.4667   8.7747  39.3971   Oco2      1 RES1   0.0000
  1106 O14     12.6449  -1.6319  53.3617   O.2       1 RES1   0.0000
  1107 O16     14.1073  -1.6319  44.7297   O.2       1 RES1   0.0000
  1108 O22     -1.6319  17.6921  48.3145   O.2       1 RES1   0.0000
  1109 O24     -1.6319   9.0601  49.7769   O.2       1 RES1   0.0000
  1110 O50      5.5359  17.7046  37.9221   Oco2      1 RES1   0.0000
  1111 O52      3.3815  17.7046  42.3345   Oco2      1 RES1   0.0000
  1112 O54      2.2525   5.5359  53.3742   O.2       1 RES1   0.0000
  1113 O56      6.6649   3.3815  53.3742   O.2       1 RES1   0.0000
  1114 O58     17.7046   2.2525  41.2055   Oco2      1 RES1   0.0000
  1115 O60     17.7046   6.6649  39.0511   Oco2      1 RES1   0.0000
  1116 O62     12.2989   0.1302  51.2519   O.2       1 RES1   0.0000
  1117 O64     14.4533   0.1302  46.8395   O.2       1 RES1   0.0000
  1118 O70      0.1302  15.5823  47.9685   O.2       1 RES1   0.0000
  1119 O72      0.1302  11.1699  50.1229   O.2       1 RES1   0.0000
  1120 O77     -1.6158   3.7239  45.0133   O.2       1 RES1   0.0000
  1121 O78     -1.6158   5.1935  53.0781   O.2       1 RES1   0.0000
  1122 O81      9.3437  -1.6158  39.3935   O.2       1 RES1   0.0000
  1123 O82     17.4085  -1.6158  40.8631   O.2       1 RES1   0.0000
  1124 O85     14.1109   8.4911  55.1202   O.2       1 RES1   0.0000
  1125 O86     12.6413   0.4263  55.1202   O.2       1 RES1   0.0000
  1126 O89     19.4506  14.1109  44.1607   Oco2      1 RES1   0.0000
  1127 O90     19.4506  12.6413  36.0959   Oco2      1 RES1   0.0000
  1128 O93      8.4911  19.4506  49.7805   Oco2      1 RES1   0.0000
  1129 O94      0.4263  19.4506  48.3109   Oco2      1 RES1   0.0000
  1130 O97     19.1992  10.5529  34.5157   O3        1 RES1   0.0000
  1131 O100    19.1992  16.1993  45.7409   O3        1 RES1   0.0000
  1132 O101    -1.1539   1.3644  46.2225   O3        1 RES1   0.0000
  1133 O101    -1.1539  19.1992  46.2225   O3        1 RES1   0.0000
  1134 O102    -1.1539   7.5530  51.8689   O3        1 RES1   0.0000
  1135 O104    10.0713  19.1992  51.8689   O3        1 RES1   0.0000
  1136 O105    10.5529  -1.1539  54.8688   O3        1 RES1   0.0000
  1137 O106    16.1993  -1.1539  43.2226   O3        1 RES1   0.0000
  1138 O108    16.1993  10.0713  54.8688   O3        1 RES1   0.0000
  1139 O109    -1.3644   7.2819  54.6583   O3        1 RES1   0.0000
  1140 O109    16.4704   7.2819  54.6583   O3        1 RES1   0.0000
  1141 O110    10.2818   1.6355  54.6583   O3        1 RES1   0.0000
  1142 O112    -1.3644   1.6355  43.4331   O3        1 RES1   0.0000
  1143 O113    18.9887  -1.3644  42.9515   O3        1 RES1   0.0000
  1144 O113    18.9887  16.4704  42.9515   O3        1 RES1   0.0000
  1145 O114    18.9887  10.2818  37.3051   O3        1 RES1   0.0000
  1146 O116     7.7635  -1.3644  37.3051   O3        1 RES1   0.0000
  1147 O117     7.2819  18.9887  52.1400   O3        1 RES1   0.0000
  1148 O118     1.6355  18.9887  45.9514   O3        1 RES1   0.0000
  1149 O120     1.6355   7.7635  34.3052   O3        1 RES1   0.0000
  1150 O153     1.4000   7.5174  54.9044   O3        1 RES1   0.0000
  1151 O153    19.2348   7.5174  37.0696   O3        1 RES1   0.0000
  1152 O154     7.5174   1.4000  54.9044   O3        1 RES1   0.0000
  1153 O154     7.5174  19.2348  37.0696   O3        1 RES1   0.0000
  1154 O156     1.4000  19.2348  43.1870   O3        1 RES1   0.0000
  1155 O156    19.2348   1.4000  43.1870   O3        1 RES1   0.0000
  1156 O157    -1.4000  10.3174  52.1044   O3        1 RES1   0.0000
  1157 O158    10.3174  -1.4000  52.1044   O3        1 RES1   0.0000
  1158 O160    -1.4000  16.4348  45.9870   O3        1 RES1   0.0000
  1159 O160    16.4348  -1.4000  45.9870   O3        1 RES1   0.0000
  1160 Zr1      2.4585  26.9507   0.2119   Zr        1 RES1   0.0000
  1161 Zr2      6.4589  35.4711   0.2119   Zr        1 RES1   0.0000
  1162 Zr3      6.4589  26.9507   8.7055   Zr        1 RES1   0.0000
  1163 Zr4      2.4585  35.4711   8.7055   Zr        1 RES1   0.0000
  1164 Zr6      0.2119  24.2937  17.6363   Zr        1 RES1   0.0000
  1165 Zr7      8.7055  24.2937   9.1159   Zr        1 RES1   0.0000
  1166 Zr11     9.1159  26.5403   6.4589   Zr        1 RES1   0.0000
  1167 Zr12    17.6363  26.5403   2.4585   Zr        1 RES1   0.0000
  1168 Zr13    15.3763  26.5537  17.6229   Zr        1 RES1   0.0000
  1169 Zr15    11.3759  26.5537   9.1293   Zr        1 RES1   0.0000
  1170 Zr17    17.6229  33.2111   8.7189   Zr        1 RES1   0.0000
  1171 Zr18    17.6229  29.2107   0.1985   Zr        1 RES1   0.0000
  1172 Zr19     9.1293  29.2107   8.7189   Zr        1 RES1   0.0000
  1173 Zr20     9.1293  33.2111   0.1985   Zr        1 RES1   0.0000
  1174 Zr21     8.7189  35.4577  15.3763   Zr        1 RES1   0.0000
  1175 Zr22     0.1985  35.4577  11.3759   Zr        1 RES1   0.0000
  1176 Zr23     8.7189  26.9641  11.3759   Zr        1 RES1   0.0000
  1177 Zr24     0.1985  26.9641  15.3763   Zr        1 RES1   0.0000
  1178 O1       3.7275  25.1203   0.1427   Oco2      1 RES1   0.0000
  1179 O3       5.1899  25.1203   8.7747   Oco2      1 RES1   0.0000
  1180 O5       0.1427  21.5623   7.2855   Oco2      1 RES1   0.0000
  1181 O6       0.1427  23.0247   1.6319   Oco2      1 RES1   0.0000
  1182 O7       8.7747  23.0247   7.2855   Oco2      1 RES1   0.0000
  1183 O8       8.7747  21.5623   1.6319   Oco2      1 RES1   0.0000
  1184 O9       7.2855  17.9775   3.7275   Oco2      1 RES1   0.0000
  1185 O10      1.6319  17.9775   5.1899   Oco2      1 RES1   0.0000
  1186 O11      7.2855  26.6095   5.1899   Oco2      1 RES1   0.0000
  1187 O12      1.6319  26.6095   3.7275   Oco2      1 RES1   0.0000
  1188 O13     14.1073  28.3841  17.6921   Oco2      1 RES1   0.0000
  1189 O14     12.6449  34.0377  17.6921   Oco2      1 RES1   0.0000
  1190 O15     12.6449  28.3841   9.0601   Oco2      1 RES1   0.0000
  1191 O16     14.1073  34.0377   9.0601   Oco2      1 RES1   0.0000
  1192 O17     17.6921  31.9421  10.5493   Oco2      1 RES1   0.0000
  1193 O18     17.6921  30.4797  16.2029   Oco2      1 RES1   0.0000
  1194 O19      9.0601  30.4797  10.5493   Oco2      1 RES1   0.0000
  1195 O20      9.0601  31.9421  16.2029   Oco2      1 RES1   0.0000
  1196 O21     10.5493  35.5269  14.1073   Oco2      1 RES1   0.0000
  1197 O22     16.2029  35.5269  12.6449   Oco2      1 RES1   0.0000
  1198 O23     10.5493  26.8949  12.6449   Oco2      1 RES1   0.0000
  1199 O24     16.2029  26.8949  14.1073   Oco2      1 RES1   0.0000
  1200 O25      3.3957  28.9744   0.4387   Oco2      1 RES1   0.0000
  1201 O26      5.5217  33.4474   0.4387   Oco2      1 RES1   0.0000
  1202 O27      5.5217  28.9744   8.4787   Oco2      1 RES1   0.0000
  1203 O28      3.3957  33.4474   8.4787   Oco2      1 RES1   0.0000
  1204 O29      0.4387  21.2305  11.1396   Oco2      1 RES1   0.0000
  1205 O30      0.4387  23.3565  15.6126   Oco2      1 RES1   0.0000
  1206 O31      8.4787  23.3565  11.1396   Oco2      1 RES1   0.0000
  1207 O32      8.4787  21.2305  15.6126   Oco2      1 RES1   0.0000
  1208 O33     11.1396  18.2735   3.3957   Oco2      1 RES1   0.0000
  1209 O34     15.6126  18.2735   5.5217   Oco2      1 RES1   0.0000
  1210 O35     11.1396  26.3135   5.5217   Oco2      1 RES1   0.0000
  1211 O36     15.6126  26.3135   3.3957   Oco2      1 RES1   0.0000
  1212 O37     14.4391  24.5300  17.3961   Oco2      1 RES1   0.0000
  1213 O38     12.3131  20.0570  17.3961   Oco2      1 RES1   0.0000
  1214 O39     12.3131  24.5300   9.3561   Oco2      1 RES1   0.0000
  1215 O40     14.4391  20.0570   9.3561   Oco2      1 RES1   0.0000
  1216 O41     17.3961  32.2739   6.6952   Oco2      1 RES1   0.0000
  1217 O42     17.3961  30.1479   2.2222   Oco2      1 RES1   0.0000
  1218 O43      9.3561  30.1479   6.6952   Oco2      1 RES1   0.0000
  1219 O44      9.3561  32.2739   2.2222   Oco2      1 RES1   0.0000
  1220 O45      6.6952  35.2309  14.4391   Oco2      1 RES1   0.0000
  1221 O46      2.2222  35.2309  12.3131   Oco2      1 RES1   0.0000
  1222 O47      6.6952  27.1909  12.3131   Oco2      1 RES1   0.0000
  1223 O48      2.2222  27.1909  14.4391   Oco2      1 RES1   0.0000
  1224 O49      3.3815  26.8824   2.2525   Oco2      1 RES1   0.0000
  1225 O51      5.5359  26.8824   6.6649   Oco2      1 RES1   0.0000
  1226 O53      2.2525  21.2163   9.0476   Oco2      1 RES1   0.0000
  1227 O54      2.2525  23.3707  -0.1302   Oco2      1 RES1   0.0000
  1228 O55      6.6649  23.3707   9.0476   Oco2      1 RES1   0.0000
  1229 O56      6.6649  21.2163  -0.1302   Oco2      1 RES1   0.0000
  1230 O57      9.0476  20.0873   3.3815   Oco2      1 RES1   0.0000
  1231 O58     -0.1302  20.0873   5.5359   Oco2      1 RES1   0.0000
  1232 O59      9.0476  24.4997   5.5359   Oco2      1 RES1   0.0000
  1233 O60     -0.1302  24.4997   3.3815   Oco2      1 RES1   0.0000
  1234 O61     14.4533  26.6220  15.5823   Oco2      1 RES1   0.0000
  1235 O62     12.2989  35.7998  15.5823   Oco2      1 RES1   0.0000
  1236 O63     12.2989  26.6220  11.1699   Oco2      1 RES1   0.0000
  1237 O64     14.4533  35.7998  11.1699   Oco2      1 RES1   0.0000
  1238 O65     15.5823  32.2881   8.7872   Oco2      1 RES1   0.0000
  1239 O66     15.5823  30.1337  17.9650   Oco2      1 RES1   0.0000
  1240 O67     11.1699  30.1337   8.7872   Oco2      1 RES1   0.0000
  1241 O68     11.1699  32.2881  17.9650   Oco2      1 RES1   0.0000
  1242 O69      8.7872  33.4171  14.4533   Oco2      1 RES1   0.0000
  1243 O70     17.9650  33.4171  12.2989   Oco2      1 RES1   0.0000
  1244 O71      8.7872  29.0047  12.2989   Oco2      1 RES1   0.0000
  1245 O72     17.9650  29.0047  14.4533   Oco2      1 RES1   0.0000
  1246 O73      3.7239  27.1785  16.2190   Oco2      1 RES1   0.0000
  1247 O74      5.1935  35.2433  16.2190   Oco2      1 RES1   0.0000
  1248 O75      5.1935  27.1785  10.5332   Oco2      1 RES1   0.0000
  1249 O76      3.7239  35.2433  10.5332   Oco2      1 RES1   0.0000
  1250 O77     16.2190  21.5587   9.3437   Oco2      1 RES1   0.0000
  1251 O78     16.2190  23.0283  17.4085   Oco2      1 RES1   0.0000
  1252 O79     10.5332  23.0283   9.3437   Oco2      1 RES1   0.0000
  1253 O80     10.5332  21.5587  17.4085   Oco2      1 RES1   0.0000
  1254 O81      9.3437  34.0538   3.7239   Oco2      1 RES1   0.0000
  1255 O82     17.4085  34.0538   5.1935   Oco2      1 RES1   0.0000
  1256 O83      9.3437  28.3680   5.1935   Oco2      1 RES1   0.0000
  1257 O84     17.4085  28.3680   3.7239   Oco2      1 RES1   0.0000
  1258 O85     14.1109  26.3259   1.6158   Oco2      1 RES1   0.0000
  1259 O86     12.6413  18.2611   1.6158   Oco2      1 RES1   0.0000
  1260 O87     12.6413  26.3259   7.3016   Oco2      1 RES1   0.0000
  1261 O88     14.1109  18.2611   7.3016   Oco2      1 RES1   0.0000
  1262 O89      1.6158  31.9457   8.4911   Oco2      1 RES1   0.0000
  1263 O90      1.6158  30.4761   0.4263   Oco2      1 RES1   0.0000
  1264 O91      7.3016  30.4761   8.4911   Oco2      1 RES1   0.0000
  1265 O92      7.3016  31.9457   0.4263   Oco2      1 RES1   0.0000
  1266 O95      8.4911  25.1364  12.6413   Oco2      1 RES1   0.0000
  1267 O96      0.4263  25.1364  14.1109   Oco2      1 RES1   0.0000
  1268 C1       2.8607  30.1248   0.4280   C.2       1 RES1   0.0000
  1269 C2       6.0567  32.2970   0.4280   C.2       1 RES1   0.0000
  1270 C3       6.0567  30.1248   8.4894   C.2       1 RES1   0.0000
  1271 C4       2.8607  32.2970   8.4894   C.2       1 RES1   0.0000
  1272 C5       0.4280  20.6955  12.2900   C.2       1 RES1   0.0000
  1273 C6       0.4280  23.8915  14.4622   C.2       1 RES1   0.0000
  1274 C7       8.4894  23.8915  12.2900   C.2       1 RES1   0.0000
  1275 C8       8.4894  20.6955  14.4622   C.2       1 RES1   0.0000
  1276 C9      12.2900  18.2628   2.8607   C.2       1 RES1   0.0000
  1277 C10     14.4622  18.2628   6.0567   C.2       1 RES1   0.0000
  1278 C11     12.2900  26.3242   6.0567   C.2       1 RES1   0.0000
  1279 C12     14.4622  26.3242   2.8607   C.2       1 RES1   0.0000
  1280 C13     14.9741  23.3796  17.4068   C.2       1 RES1   0.0000
  1281 C14     11.7781  21.2074  17.4068   C.2       1 RES1   0.0000
  1282 C15     11.7781  23.3796   9.3454   C.2       1 RES1   0.0000
  1283 C16     14.9741  21.2074   9.3454   C.2       1 RES1   0.0000
  1284 C17     17.4068  32.8089   5.5448   C.2       1 RES1   0.0000
  1285 C18     17.4068  29.6129   3.3726   C.2       1 RES1   0.0000
  1286 C19      9.3454  29.6129   5.5448   C.2       1 RES1   0.0000
  1287 C20      9.3454  32.8089   3.3726   C.2       1 RES1   0.0000
  1288 C21      5.5448  35.2416  14.9741   C.2       1 RES1   0.0000
  1289 C22      3.3726  35.2416  11.7781   C.2       1 RES1   0.0000
  1290 C23      5.5448  27.1802  11.7781   C.2       1 RES1   0.0000
  1291 C24      3.3726  27.1802  14.9741   C.2       1 RES1   0.0000
  1292 C25      3.8202  31.3090   0.4334   C.2       1 RES1   0.0000
  1293 C26      5.0972  31.1128   0.4334   C.2       1 RES1   0.0000
  1294 C27      5.0972  31.3090   8.4840   C.2       1 RES1   0.0000
  1295 C28      3.8202  31.1128   8.4840   C.2       1 RES1   0.0000
  1296 C29      0.4334  21.6550  13.4742   C.2       1 RES1   0.0000
  1297 C30      0.4334  22.9320  13.2780   C.2       1 RES1   0.0000
  1298 C31      8.4840  22.9320  13.4742   C.2       1 RES1   0.0000
  1299 C32      8.4840  21.6550  13.2780   C.2       1 RES1   0.0000
  1300 C33     13.4742  18.2682   3.8202   C.2       1 RES1   0.0000
  1301 C34     13.2780  18.2682   5.0972   C.2       1 RES1   0.0000
  1302 C35     13.4742  26.3188   5.0972   C.2       1 RES1   0.0000
  1303 C36     13.2780  26.3188   3.8202   C.2       1 RES1   0.0000
  1304 C37     14.0146  22.1954  17.4014   C.2       1 RES1   0.0000
  1305 C38     12.7376  22.3916  17.4014   C.2       1 RES1   0.0000
  1306 C39     12.7376  22.1954   9.3508   C.2       1 RES1   0.0000
  1307 C40     14.0146  22.3916   9.3508   C.2       1 RES1   0.0000
  1308 C41     17.4014  31.8494   4.3606   C.2       1 RES1   0.0000
  1309 C42     17.4014  30.5724   4.5568   C.2       1 RES1   0.0000
  1310 C43      9.3508  30.5724   4.3606   C.2       1 RES1   0.0000
  1311 C44      9.3508  31.8494   4.5568   C.2       1 RES1   0.0000
  1312 C45      4.3606  35.2362  14.0146   C.2       1 RES1   0.0000
  1313 C46      4.5568  35.2362  12.7376   C.2       1 RES1   0.0000
  1314 C47      4.3606  27.1856  12.7376   C.2       1 RES1   0.0000
  1315 C48      4.5568  27.1856  14.0146   C.2       1 RES1   0.0000
  1316 H1       3.4867  32.1775   0.4352   H         1 RES1   0.0000
  1317 H2       5.4307  30.2443   0.4352   H         1 RES1   0.0000
  1318 H3       5.4307  32.1775   8.4822   H         1 RES1   0.0000
  1319 H4       3.4867  30.2443   8.4822   H         1 RES1   0.0000
  1320 H5       0.4352  21.3215  14.3427   H         1 RES1   0.0000
  1321 H6       0.4352  23.2655  12.4095   H         1 RES1   0.0000
  1322 H7       8.4822  23.2655  14.3427   H         1 RES1   0.0000
  1323 H8       8.4822  21.3215  12.4095   H         1 RES1   0.0000
  1324 H9      14.3427  18.2700   3.4867   H         1 RES1   0.0000
  1325 H10     12.4095  18.2700   5.4307   H         1 RES1   0.0000
  1326 H11     14.3427  26.3170   5.4307   H         1 RES1   0.0000
  1327 H12     12.4095  26.3170   3.4867   H         1 RES1   0.0000
  1328 H13     14.3481  21.3269  17.3996   H         1 RES1   0.0000
  1329 H14     12.4041  23.2601  17.3996   H         1 RES1   0.0000
  1330 H15     12.4041  21.3269   9.3526   H         1 RES1   0.0000
  1331 H16     14.3481  23.2601   9.3526   H         1 RES1   0.0000
  1332 H17     17.3996  32.1829   3.4921   H         1 RES1   0.0000
  1333 H18     17.3996  30.2389   5.4253   H         1 RES1   0.0000
  1334 H19      9.3526  30.2389   3.4921   H         1 RES1   0.0000
  1335 H20      9.3526  32.1829   5.4253   H         1 RES1   0.0000
  1336 H21      3.4921  35.2344  14.3481   H         1 RES1   0.0000
  1337 H22      5.4253  35.2344  12.4041   H         1 RES1   0.0000
  1338 H23      3.4921  27.1874  12.4041   H         1 RES1   0.0000
  1339 H24      5.4253  27.1874  14.3481   H         1 RES1   0.0000
  1340 C49      3.3993  23.8951   0.0000   C.2       1 RES1   0.0000
  1341 C50      5.5181  20.6919   0.0000   C.2       1 RES1   0.0000
  1342 C51      5.5181  23.8951   8.9174   C.2       1 RES1   0.0000
  1343 C52      3.3993  20.6919   8.9174   C.2       1 RES1   0.0000
  1344 C53      0.0000  21.2341   6.0603   C.2       1 RES1   0.0000
  1345 C54      0.0000  23.3529   2.8571   C.2       1 RES1   0.0000
  1346 C55      8.9174  23.3529   6.0603   C.2       1 RES1   0.0000
  1347 C56      8.9174  21.2341   2.8571   C.2       1 RES1   0.0000
  1348 C57      6.0603  17.8348   3.3993   C.2       1 RES1   0.0000
  1349 C58      2.8571  17.8348   5.5181   C.2       1 RES1   0.0000
  1350 C59      6.0603  26.7522   5.5181   C.2       1 RES1   0.0000
  1351 C60      2.8571  26.7522   3.3993   C.2       1 RES1   0.0000
  1352 C61     14.4355  29.6093  17.8348   C.2       1 RES1   0.0000
  1353 C62     12.3167  32.8125  17.8348   C.2       1 RES1   0.0000
  1354 C63     12.3167  29.6093   8.9174   C.2       1 RES1   0.0000
  1355 C64     14.4355  32.8125   8.9174   C.2       1 RES1   0.0000
  1356 C65     17.8348  32.2703  11.7745   C.2       1 RES1   0.0000
  1357 C66     17.8348  30.1515  14.9777   C.2       1 RES1   0.0000
  1358 C67      8.9174  30.1515  11.7745   C.2       1 RES1   0.0000
  1359 C68      8.9174  32.2703  14.9777   C.2       1 RES1   0.0000
  1360 C69     11.7745  35.6696  14.4355   C.2       1 RES1   0.0000
  1361 C70     14.9777  35.6696  12.3167   C.2       1 RES1   0.0000
  1362 C71     11.7745  26.7522  12.3167   C.2       1 RES1   0.0000
  1363 C72     14.9777  26.7522  14.4355   C.2       1 RES1   0.0000
  1364 C73      4.5782  22.9445   0.0018   C.2       1 RES1   0.0000
  1365 C74      4.3392  21.6425   0.0018   C.2       1 RES1   0.0000
  1366 C75      4.3392  22.9445   8.9156   C.2       1 RES1   0.0000
  1367 C76      4.5782  21.6425   8.9156   C.2       1 RES1   0.0000
  1368 C77      0.0018  22.4130   5.1097   C.2       1 RES1   0.0000
  1369 C78      0.0018  22.1740   3.8077   C.2       1 RES1   0.0000
  1370 C79      8.9156  22.1740   5.1097   C.2       1 RES1   0.0000
  1371 C80      8.9156  22.4130   3.8077   C.2       1 RES1   0.0000
  1372 C81      5.1097  17.8366   4.5782   C.2       1 RES1   0.0000
  1373 C82      3.8077  17.8366   4.3392   C.2       1 RES1   0.0000
  1374 C83      5.1097  26.7504   4.3392   C.2       1 RES1   0.0000
  1375 C84      3.8077  26.7504   4.5782   C.2       1 RES1   0.0000
  1376 C85     13.2566  30.5599  17.8330   C.2       1 RES1   0.0000
  1377 C86     13.4956  31.8619  17.8330   C.2       1 RES1   0.0000
  1378 C87     13.4956  30.5599   8.9192   C.2       1 RES1   0.0000
  1379 C88     13.2566  31.8619   8.9192   C.2       1 RES1   0.0000
  1380 C89     17.8330  31.0914  12.7251   C.2       1 RES1   0.0000
  1381 C90     17.8330  31.3304  14.0271   C.2       1 RES1   0.0000
  1382 C91      8.9192  31.3304  12.7251   C.2       1 RES1   0.0000
  1383 C92      8.9192  31.0914  14.0271   C.2       1 RES1   0.0000
  1384 C93     12.7251  35.6678  13.2566   C.2       1 RES1   0.0000
  1385 C94     14.0271  35.6678  13.4956   C.2       1 RES1   0.0000
  1386 C95     12.7251  26.7540  13.4956   C.2       1 RES1   0.0000
  1387 C96     14.0271  26.7540  13.2566   C.2       1 RES1   0.0000
  1388 H25      5.4503  23.2673   0.0018   H         1 RES1   0.0000
  1389 H26      3.4671  21.3197   0.0018   H         1 RES1   0.0000
  1390 H27      3.4671  23.2673   8.9156   H         1 RES1   0.0000
  1391 H28      5.4503  21.3197   8.9156   H         1 RES1   0.0000
  1392 H29      0.0018  23.2851   5.4325   H         1 RES1   0.0000
  1393 H30      0.0018  21.3019   3.4849   H         1 RES1   0.0000
  1394 H31      8.9156  21.3019   5.4325   H         1 RES1   0.0000
  1395 H32      8.9156  23.2851   3.4849   H         1 RES1   0.0000
  1396 H33      5.4325  17.8366   5.4503   H         1 RES1   0.0000
  1397 H34      3.4849  17.8366   3.4671   H         1 RES1   0.0000
  1398 H35      5.4325  26.7504   3.4671   H         1 RES1   0.0000
  1399 H36      3.4849  26.7504   5.4503   H         1 RES1   0.0000
  1400 H37     12.3845  30.2371  17.8330   H         1 RES1   0.0000
  1401 H38     14.3677  32.1847  17.8330   H         1 RES1   0.0000
  1402 H39     14.3677  30.2371   8.9192   H         1 RES1   0.0000
  1403 H40     12.3845  32.1847   8.9192   H         1 RES1   0.0000
  1404 H41     17.8330  30.2193  12.4023   H         1 RES1   0.0000
  1405 H42     17.8330  32.2025  14.3499   H         1 RES1   0.0000
  1406 H43      8.9192  32.2025  12.4023   H         1 RES1   0.0000
  1407 H44      8.9192  30.2193  14.3499   H         1 RES1   0.0000
  1408 H45     12.4023  35.6678  12.3845   H         1 RES1   0.0000
  1409 H46     14.3499  35.6678  14.3677   H         1 RES1   0.0000
  1410 H47     12.4023  26.7540  14.3677   H         1 RES1   0.0000
  1411 H48     14.3499  26.7540  12.3845   H         1 RES1   0.0000
  1412 O97      1.3644  28.3877  16.6809   O3        1 RES1   0.0000
  1413 O98      7.5530  34.0341  16.6809   O3        1 RES1   0.0000
  1414 O99      7.5530  28.3877  10.0713   O3        1 RES1   0.0000
  1415 O100     1.3644  34.0341  10.0713   O3        1 RES1   0.0000
  1416 O101    16.6809  19.1992  10.5529   O3        1 RES1   0.0000
  1417 O102    16.6809  25.3878  16.1993   O3        1 RES1   0.0000
  1418 O103    10.0713  25.3878  10.5529   O3        1 RES1   0.0000
  1419 O105    10.5529  34.5157   1.3644   O3        1 RES1   0.0000
  1420 O106    16.1993  34.5157   7.5530   O3        1 RES1   0.0000
  1421 O107    10.5529  27.9061   7.5530   O3        1 RES1   0.0000
  1422 O108    16.1993  27.9061   1.3644   O3        1 RES1   0.0000
  1423 O109    16.4704  25.1167   1.1539   O3        1 RES1   0.0000
  1424 O110    10.2818  19.4703   1.1539   O3        1 RES1   0.0000
  1425 O111    10.2818  25.1167   7.7635   O3        1 RES1   0.0000
  1426 O112    16.4704  19.4703   7.7635   O3        1 RES1   0.0000
  1427 O113     1.1539  34.3052   7.2819   O3        1 RES1   0.0000
  1428 O114     1.1539  28.1166   1.6355   O3        1 RES1   0.0000
  1429 O115     7.7635  28.1166   7.2819   O3        1 RES1   0.0000
  1430 O116     7.7635  34.3052   1.6355   O3        1 RES1   0.0000
  1431 O119     7.2819  25.5983  10.2818   O3        1 RES1   0.0000
  1432 O153     1.4000  25.3522   1.4000   O3        1 RES1   0.0000
  1433 O155     7.5174  25.3522   7.5174   O3        1 RES1   0.0000
  1434 O157    16.4348  28.1522  16.4348   O3        1 RES1   0.0000
  1435 O158    10.3174  34.2696  16.4348   O3        1 RES1   0.0000
  1436 O159    10.3174  28.1522  10.3174   O3        1 RES1   0.0000
  1437 O160    16.4348  34.2696  10.3174   O3        1 RES1   0.0000
  1438 Zr1      2.4585  26.9507  18.0467   Zr        1 RES1   0.0000
  1439 Zr1     20.2933  26.9507   0.2119   Zr        1 RES1   0.0000
  1440 Zr2      6.4589  35.4711  18.0467   Zr        1 RES1   0.0000
  1441 Zr4     20.2933  35.4711   8.7055   Zr        1 RES1   0.0000
  1442 Zr5      0.2119  38.1281   9.1159   Zr        1 RES1   0.0000
  1443 Zr5     18.0467  20.2933   9.1159   Zr        1 RES1   0.0000
  1444 Zr6      0.2119  24.2937  -0.1985   Zr        1 RES1   0.0000
  1445 Zr6     18.0467  24.2937  -0.1985   Zr        1 RES1   0.0000
  1446 Zr6     18.0467  24.2937  17.6363   Zr        1 RES1   0.0000
  1447 Zr8      8.7055  38.1281  -0.1985   Zr        1 RES1   0.0000
  1448 Zr8      8.7055  38.1281  17.6363   Zr        1 RES1   0.0000
  1449 Zr9      9.1159  35.8815   2.4585   Zr        1 RES1   0.0000
  1450 Zr10    -0.1985  35.8815   6.4589   Zr        1 RES1   0.0000
  1451 Zr10    17.6363  35.8815   6.4589   Zr        1 RES1   0.0000
  1452 Zr12    -0.1985  26.5403   2.4585   Zr        1 RES1   0.0000
  1453 Zr12    -0.1985  26.5403  20.2933   Zr        1 RES1   0.0000
  1454 Zr12    17.6363  26.5403  20.2933   Zr        1 RES1   0.0000
  1455 Zr13    -2.4585  26.5537  17.6229   Zr        1 RES1   0.0000
  1456 Zr13    15.3763  26.5537  -0.2119   Zr        1 RES1   0.0000
  1457 Zr14    11.3759  35.8681  -0.2119   Zr        1 RES1   0.0000
  1458 Zr14    11.3759  35.8681  17.6229   Zr        1 RES1   0.0000
  1459 Zr16    -2.4585  35.8681   9.1293   Zr        1 RES1   0.0000
  1460 Zr16    15.3763  35.8681   9.1293   Zr        1 RES1   0.0000
  1461 Zr17    -0.2119  33.2111   8.7189   Zr        1 RES1   0.0000
  1462 Zr18    -0.2119  29.2107   0.1985   Zr        1 RES1   0.0000
  1463 Zr18    -0.2119  29.2107  18.0333   Zr        1 RES1   0.0000
  1464 Zr18    17.6229  29.2107  18.0333   Zr        1 RES1   0.0000
  1465 Zr20     9.1293  33.2111  18.0333   Zr        1 RES1   0.0000
  1466 Zr21     8.7189  35.4577  -2.4585   Zr        1 RES1   0.0000
  1467 Zr22    18.0333  35.4577  11.3759   Zr        1 RES1   0.0000
  1468 Zr24     0.1985  26.9641  -2.4585   Zr        1 RES1   0.0000
  1469 Zr24    18.0333  26.9641  -2.4585   Zr        1 RES1   0.0000
  1470 Zr24    18.0333  26.9641  15.3763   Zr        1 RES1   0.0000
  1471 O2       5.1899  37.3015   0.1427   Oco2      1 RES1   0.0000
  1472 O4       3.7275  37.3015   8.7747   Oco2      1 RES1   0.0000
  1473 O6       0.1427  23.0247  19.4667   Oco2      1 RES1   0.0000
  1474 O8       8.7747  21.5623  19.4667   Oco2      1 RES1   0.0000
  1475 O10     19.4667  17.9775   5.1899   Oco2      1 RES1   0.0000
  1476 O12     19.4667  26.6095   3.7275   Oco2      1 RES1   0.0000
  1477 O18     17.6921  30.4797  -1.6319   O.2       1 RES1   0.0000
  1478 O20      9.0601  31.9421  -1.6319   O.2       1 RES1   0.0000
  1479 O22     -1.6319  35.5269  12.6449   O.2       1 RES1   0.0000
  1480 O24     -1.6319  26.8949  14.1073   O.2       1 RES1   0.0000
  1481 O50      5.5359  35.5394   2.2525   Oco2      1 RES1   0.0000
  1482 O52      3.3815  35.5394   6.6649   Oco2      1 RES1   0.0000
  1483 O54      2.2525  23.3707  17.7046   Oco2      1 RES1   0.0000
  1484 O56      6.6649  21.2163  17.7046   Oco2      1 RES1   0.0000
  1485 O58     17.7046  20.0873   5.5359   Oco2      1 RES1   0.0000
  1486 O60     17.7046  24.4997   3.3815   Oco2      1 RES1   0.0000
  1487 O66     15.5823  30.1337   0.1302   O.2       1 RES1   0.0000
  1488 O68     11.1699  32.2881   0.1302   O.2       1 RES1   0.0000
  1489 O70      0.1302  33.4171  12.2989   O.2       1 RES1   0.0000
  1490 O72      0.1302  29.0047  14.4533   O.2       1 RES1   0.0000
  1491 O73      3.7239  27.1785  -1.6158   O.2       1 RES1   0.0000
  1492 O74      5.1935  35.2433  -1.6158   O.2       1 RES1   0.0000
  1493 O77     -1.6158  21.5587   9.3437   O.2       1 RES1   0.0000
  1494 O78     -1.6158  23.0283  17.4085   O.2       1 RES1   0.0000
  1495 O85     14.1109  26.3259  19.4506   Oco2      1 RES1   0.0000
  1496 O86     12.6413  18.2611  19.4506   Oco2      1 RES1   0.0000
  1497 O89     19.4506  31.9457   8.4911   Oco2      1 RES1   0.0000
  1498 O90     19.4506  30.4761   0.4263   Oco2      1 RES1   0.0000
  1499 O93      8.4911  37.2854  14.1109   Oco2      1 RES1   0.0000
  1500 O94      0.4263  37.2854  12.6413   Oco2      1 RES1   0.0000
  1501 O97      1.3644  28.3877  -1.1539   O3        1 RES1   0.0000
  1502 O97     19.1992  28.3877  -1.1539   O3        1 RES1   0.0000
  1503 O98      7.5530  34.0341  -1.1539   O3        1 RES1   0.0000
  1504 O100    19.1992  34.0341  10.0713   O3        1 RES1   0.0000
  1505 O101    -1.1539  37.0340  10.5529   O3        1 RES1   0.0000
  1506 O102    -1.1539  25.3878  16.1993   O3        1 RES1   0.0000
  1507 O104    10.0713  37.0340  16.1993   O3        1 RES1   0.0000
  1508 O108    16.1993  27.9061  19.1992   O3        1 RES1   0.0000
  1509 O109    -1.3644  25.1167  18.9887   O3        1 RES1   0.0000
  1510 O109    16.4704  25.1167  18.9887   O3        1 RES1   0.0000
  1511 O110    10.2818  19.4703  18.9887   O3        1 RES1   0.0000
  1512 O112    -1.3644  19.4703   7.7635   O3        1 RES1   0.0000
  1513 O113    18.9887  34.3052   7.2819   O3        1 RES1   0.0000
  1514 O114    18.9887  28.1166   1.6355   O3        1 RES1   0.0000
  1515 O117     7.2819  36.8235  -1.3644   O3        1 RES1   0.0000
  1516 O117     7.2819  36.8235  16.4704   O3        1 RES1   0.0000
  1517 O118     1.6355  36.8235  10.2818   O3        1 RES1   0.0000
  1518 O120     1.6355  25.5983  -1.3644   O3        1 RES1   0.0000
  1519 O153     1.4000  25.3522  19.2348   O3        1 RES1   0.0000
  1520 O153    19.2348  25.3522   1.4000   O3        1 RES1   0.0000
  1521 O154     7.5174  37.0696   1.4000   O3        1 RES1   0.0000
  1522 O156     1.4000  37.0696   7.5174   O3        1 RES1   0.0000
  1523 O156    19.2348  19.2348   7.5174   O3        1 RES1   0.0000
  1524 O157    -1.4000  28.1522  16.4348   O3        1 RES1   0.0000
  1525 O157    16.4348  28.1522  -1.4000   O3        1 RES1   0.0000
  1526 O158    10.3174  34.2696  -1.4000   O3        1 RES1   0.0000
  1527 O160    -1.4000  34.2696  10.3174   O3        1 RES1   0.0000
  1528 Zr3      6.4589  26.9507  26.5403   Zr        1 RES1   0.0000
  1529 Zr4      2.4585  35.4711  26.5403   Zr        1 RES1   0.0000
  1530 Zr6      0.2119  24.2937  35.4711   Zr        1 RES1   0.0000
  1531 Zr7      8.7055  24.2937  26.9507   Zr        1 RES1   0.0000
  1532 Zr11     9.1159  26.5403  24.2937   Zr        1 RES1   0.0000
  1533 Zr13    15.3763  26.5537  35.4577   Zr        1 RES1   0.0000
  1534 Zr15    11.3759  26.5537  26.9641   Zr        1 RES1   0.0000
  1535 Zr17    17.6229  33.2111  26.5537   Zr        1 RES1   0.0000
  1536 Zr19     9.1293  29.2107  26.5537   Zr        1 RES1   0.0000
  1537 Zr21     8.7189  35.4577  33.2111   Zr        1 RES1   0.0000
  1538 Zr22     0.1985  35.4577  29.2107   Zr        1 RES1   0.0000
  1539 Zr23     8.7189  26.9641  29.2107   Zr        1 RES1   0.0000
  1540 Zr24     0.1985  26.9641  33.2111   Zr        1 RES1   0.0000
  1541 O1       3.7275  25.1203  17.9775   Oco2      1 RES1   0.0000
  1542 O3       5.1899  25.1203  26.6095   Oco2      1 RES1   0.0000
  1543 O5       0.1427  21.5623  25.1203   Oco2      1 RES1   0.0000
  1544 O7       8.7747  23.0247  25.1203   Oco2      1 RES1   0.0000
  1545 O9       7.2855  17.9775  21.5623   Oco2      1 RES1   0.0000
  1546 O10      1.6319  17.9775  23.0247   Oco2      1 RES1   0.0000
  1547 O11      7.2855  26.6095  23.0247   Oco2      1 RES1   0.0000
  1548 O12      1.6319  26.6095  21.5623   Oco2      1 RES1   0.0000
  1549 O13     14.1073  28.3841  35.5269   Oco2      1 RES1   0.0000
  1550 O14     12.6449  34.0377  35.5269   Oco2      1 RES1   0.0000
  1551 O15     12.6449  28.3841  26.8949   Oco2      1 RES1   0.0000
  1552 O16     14.1073  34.0377  26.8949   Oco2      1 RES1   0.0000
  1553 O17     17.6921  31.9421  28.3841   Oco2      1 RES1   0.0000
  1554 O18     17.6921  30.4797  34.0377   Oco2      1 RES1   0.0000
  1555 O19      9.0601  30.4797  28.3841   Oco2      1 RES1   0.0000
  1556 O20      9.0601  31.9421  34.0377   Oco2      1 RES1   0.0000
  1557 O21     10.5493  35.5269  31.9421   Oco2      1 RES1   0.0000
  1558 O22     16.2029  35.5269  30.4797   Oco2      1 RES1   0.0000
  1559 O23     10.5493  26.8949  30.4797   Oco2      1 RES1   0.0000
  1560 O24     16.2029  26.8949  31.9421   Oco2      1 RES1   0.0000
  1561 O25      3.3957  28.9744  18.2735   Oco2      1 RES1   0.0000
  1562 O26      5.5217  33.4474  18.2735   Oco2      1 RES1   0.0000
  1563 O27      5.5217  28.9744  26.3135   Oco2      1 RES1   0.0000
  1564 O28      3.3957  33.4474  26.3135   Oco2      1 RES1   0.0000
  1565 O29      0.4387  21.2305  28.9744   Oco2      1 RES1   0.0000
  1566 O30      0.4387  23.3565  33.4474   Oco2      1 RES1   0.0000
  1567 O31      8.4787  23.3565  28.9744   Oco2      1 RES1   0.0000
  1568 O32      8.4787  21.2305  33.4474   Oco2      1 RES1   0.0000
  1569 O33     11.1396  18.2735  21.2305   Oco2      1 RES1   0.0000
  1570 O34     15.6126  18.2735  23.3565   Oco2      1 RES1   0.0000
  1571 O35     11.1396  26.3135  23.3565   Oco2      1 RES1   0.0000
  1572 O36     15.6126  26.3135  21.2305   Oco2      1 RES1   0.0000
  1573 O37     14.4391  24.5300  35.2309   Oco2      1 RES1   0.0000
  1574 O38     12.3131  20.0570  35.2309   Oco2      1 RES1   0.0000
  1575 O39     12.3131  24.5300  27.1909   Oco2      1 RES1   0.0000
  1576 O40     14.4391  20.0570  27.1909   Oco2      1 RES1   0.0000
  1577 O41     17.3961  32.2739  24.5300   Oco2      1 RES1   0.0000
  1578 O42     17.3961  30.1479  20.0570   Oco2      1 RES1   0.0000
  1579 O43      9.3561  30.1479  24.5300   Oco2      1 RES1   0.0000
  1580 O44      9.3561  32.2739  20.0570   Oco2      1 RES1   0.0000
  1581 O45      6.6952  35.2309  32.2739   Oco2      1 RES1   0.0000
  1582 O46      2.2222  35.2309  30.1479   Oco2      1 RES1   0.0000
  1583 O47      6.6952  27.1909  30.1479   Oco2      1 RES1   0.0000
  1584 O48      2.2222  27.1909  32.2739   Oco2      1 RES1   0.0000
  1585 O49      3.3815  26.8824  20.0873   Oco2      1 RES1   0.0000
  1586 O51      5.5359  26.8824  24.4997   Oco2      1 RES1   0.0000
  1587 O53      2.2525  21.2163  26.8824   Oco2      1 RES1   0.0000
  1588 O55      6.6649  23.3707  26.8824   Oco2      1 RES1   0.0000
  1589 O57      9.0476  20.0873  21.2163   Oco2      1 RES1   0.0000
  1590 O58     -0.1302  20.0873  23.3707   Oco2      1 RES1   0.0000
  1591 O59      9.0476  24.4997  23.3707   Oco2      1 RES1   0.0000
  1592 O60     -0.1302  24.4997  21.2163   Oco2      1 RES1   0.0000
  1593 O61     14.4533  26.6220  33.4171   Oco2      1 RES1   0.0000
  1594 O62     12.2989  35.7998  33.4171   Oco2      1 RES1   0.0000
  1595 O63     12.2989  26.6220  29.0047   Oco2      1 RES1   0.0000
  1596 O64     14.4533  35.7998  29.0047   Oco2      1 RES1   0.0000
  1597 O65     15.5823  32.2881  26.6220   Oco2      1 RES1   0.0000
  1598 O66     15.5823  30.1337  35.7998   Oco2      1 RES1   0.0000
  1599 O67     11.1699  30.1337  26.6220   Oco2      1 RES1   0.0000
  1600 O68     11.1699  32.2881  35.7998   Oco2      1 RES1   0.0000
  1601 O69      8.7872  33.4171  32.2881   Oco2      1 RES1   0.0000
  1602 O70     17.9650  33.4171  30.1337   Oco2      1 RES1   0.0000
  1603 O71      8.7872  29.0047  30.1337   Oco2      1 RES1   0.0000
  1604 O72     17.9650  29.0047  32.2881   Oco2      1 RES1   0.0000
  1605 O73      3.7239  27.1785  34.0538   Oco2      1 RES1   0.0000
  1606 O74      5.1935  35.2433  34.0538   Oco2      1 RES1   0.0000
  1607 O75      5.1935  27.1785  28.3680   Oco2      1 RES1   0.0000
  1608 O76      3.7239  35.2433  28.3680   Oco2      1 RES1   0.0000
  1609 O77     16.2190  21.5587  27.1785   Oco2      1 RES1   0.0000
  1610 O78     16.2190  23.0283  35.2433   Oco2      1 RES1   0.0000
  1611 O79     10.5332  23.0283  27.1785   Oco2      1 RES1   0.0000
  1612 O80     10.5332  21.5587  35.2433   Oco2      1 RES1   0.0000
  1613 O81      9.3437  34.0538  21.5587   Oco2      1 RES1   0.0000
  1614 O82     17.4085  34.0538  23.0283   Oco2      1 RES1   0.0000
  1615 O83      9.3437  28.3680  23.0283   Oco2      1 RES1   0.0000
  1616 O84     17.4085  28.3680  21.5587   Oco2      1 RES1   0.0000
  1617 O87     12.6413  26.3259  25.1364   Oco2      1 RES1   0.0000
  1618 O88     14.1109  18.2611  25.1364   Oco2      1 RES1   0.0000
  1619 O89      1.6158  31.9457  26.3259   Oco2      1 RES1   0.0000
  1620 O90      1.6158  30.4761  18.2611   Oco2      1 RES1   0.0000
  1621 O91      7.3016  30.4761  26.3259   Oco2      1 RES1   0.0000
  1622 O92      7.3016  31.9457  18.2611   Oco2      1 RES1   0.0000
  1623 O95      8.4911  25.1364  30.4761   Oco2      1 RES1   0.0000
  1624 O96      0.4263  25.1364  31.9457   Oco2      1 RES1   0.0000
  1625 C1       2.8607  30.1248  18.2628   C.2       1 RES1   0.0000
  1626 C2       6.0567  32.2970  18.2628   C.2       1 RES1   0.0000
  1627 C3       6.0567  30.1248  26.3242   C.2       1 RES1   0.0000
  1628 C4       2.8607  32.2970  26.3242   C.2       1 RES1   0.0000
  1629 C5       0.4280  20.6955  30.1248   C.2       1 RES1   0.0000
  1630 C6       0.4280  23.8915  32.2970   C.2       1 RES1   0.0000
  1631 C7       8.4894  23.8915  30.1248   C.2       1 RES1   0.0000
  1632 C8       8.4894  20.6955  32.2970   C.2       1 RES1   0.0000
  1633 C9      12.2900  18.2628  20.6955   C.2       1 RES1   0.0000
  1634 C10     14.4622  18.2628  23.8915   C.2       1 RES1   0.0000
  1635 C11     12.2900  26.3242  23.8915   C.2       1 RES1   0.0000
  1636 C12     14.4622  26.3242  20.6955   C.2       1 RES1   0.0000
  1637 C13     14.9741  23.3796  35.2416   C.2       1 RES1   0.0000
  1638 C14     11.7781  21.2074  35.2416   C.2       1 RES1   0.0000
  1639 C15     11.7781  23.3796  27.1802   C.2       1 RES1   0.0000
  1640 C16     14.9741  21.2074  27.1802   C.2       1 RES1   0.0000
  1641 C17     17.4068  32.8089  23.3796   C.2       1 RES1   0.0000
  1642 C18     17.4068  29.6129  21.2074   C.2       1 RES1   0.0000
  1643 C19      9.3454  29.6129  23.3796   C.2       1 RES1   0.0000
  1644 C20      9.3454  32.8089  21.2074   C.2       1 RES1   0.0000
  1645 C21      5.5448  35.2416  32.8089   C.2       1 RES1   0.0000
  1646 C22      3.3726  35.2416  29.6129   C.2       1 RES1   0.0000
  1647 C23      5.5448  27.1802  29.6129   C.2       1 RES1   0.0000
  1648 C24      3.3726  27.1802  32.8089   C.2       1 RES1   0.0000
  1649 C25      3.8202  31.3090  18.2682   C.2       1 RES1   0.0000
  1650 C26      5.0972  31.1128  18.2682   C.2       1 RES1   0.0000
  1651 C27      5.0972  31.3090  26.3188   C.2       1 RES1   0.0000
  1652 C28      3.8202  31.1128  26.3188   C.2       1 RES1   0.0000
  1653 C29      0.4334  21.6550  31.3090   C.2       1 RES1   0.0000
  1654 C30      0.4334  22.9320  31.1128   C.2       1 RES1   0.0000
  1655 C31      8.4840  22.9320  31.3090   C.2       1 RES1   0.0000
  1656 C32      8.4840  21.6550  31.1128   C.2       1 RES1   0.0000
  1657 C33     13.4742  18.2682  21.6550   C.2       1 RES1   0.0000
  1658 C34     13.2780  18.2682  22.9320   C.2       1 RES1   0.0000
  1659 C35     13.4742  26.3188  22.9320   C.2       1 RES1   0.0000
  1660 C36     13.2780  26.3188  21.6550   C.2       1 RES1   0.0000
  1661 C37     14.0146  22.1954  35.2362   C.2       1 RES1   0.0000
  1662 C38     12.7376  22.3916  35.2362   C.2       1 RES1   0.0000
  1663 C39     12.7376  22.1954  27.1856   C.2       1 RES1   0.0000
  1664 C40     14.0146  22.3916  27.1856   C.2       1 RES1   0.0000
  1665 C41     17.4014  31.8494  22.1954   C.2       1 RES1   0.0000
  1666 C42     17.4014  30.5724  22.3916   C.2       1 RES1   0.0000
  1667 C43      9.3508  30.5724  22.1954   C.2       1 RES1   0.0000
  1668 C44      9.3508  31.8494  22.3916   C.2       1 RES1   0.0000
  1669 C45      4.3606  35.2362  31.8494   C.2       1 RES1   0.0000
  1670 C46      4.5568  35.2362  30.5724   C.2       1 RES1   0.0000
  1671 C47      4.3606  27.1856  30.5724   C.2       1 RES1   0.0000
  1672 C48      4.5568  27.1856  31.8494   C.2       1 RES1   0.0000
  1673 H1       3.4867  32.1775  18.2700   H         1 RES1   0.0000
  1674 H2       5.4307  30.2443  18.2700   H         1 RES1   0.0000
  1675 H3       5.4307  32.1775  26.3170   H         1 RES1   0.0000
  1676 H4       3.4867  30.2443  26.3170   H         1 RES1   0.0000
  1677 H5       0.4352  21.3215  32.1775   H         1 RES1   0.0000
  1678 H6       0.4352  23.2655  30.2443   H         1 RES1   0.0000
  1679 H7       8.4822  23.2655  32.1775   H         1 RES1   0.0000
  1680 H8       8.4822  21.3215  30.2443   H         1 RES1   0.0000
  1681 H9      14.3427  18.2700  21.3215   H         1 RES1   0.0000
  1682 H10     12.4095  18.2700  23.2655   H         1 RES1   0.0000
  1683 H11     14.3427  26.3170  23.2655   H         1 RES1   0.0000
  1684 H12     12.4095  26.3170  21.3215   H         1 RES1   0.0000
  1685 H13     14.3481  21.3269  35.2344   H         1 RES1   0.0000
  1686 H14     12.4041  23.2601  35.2344   H         1 RES1   0.0000
  1687 H15     12.4041  21.3269  27.1874   H         1 RES1   0.0000
  1688 H16     14.3481  23.2601  27.1874   H         1 RES1   0.0000
  1689 H17     17.3996  32.1829  21.3269   H         1 RES1   0.0000
  1690 H18     17.3996  30.2389  23.2601   H         1 RES1   0.0000
  1691 H19      9.3526  30.2389  21.3269   H         1 RES1   0.0000
  1692 H20      9.3526  32.1829  23.2601   H         1 RES1   0.0000
  1693 H21      3.4921  35.2344  32.1829   H         1 RES1   0.0000
  1694 H22      5.4253  35.2344  30.2389   H         1 RES1   0.0000
  1695 H23      3.4921  27.1874  30.2389   H         1 RES1   0.0000
  1696 H24      5.4253  27.1874  32.1829   H         1 RES1   0.0000
  1697 C49      3.3993  23.8951  17.8348   C.2       1 RES1   0.0000
  1698 C50      5.5181  20.6919  17.8348   C.2       1 RES1   0.0000
  1699 C51      5.5181  23.8951  26.7522   C.2       1 RES1   0.0000
  1700 C52      3.3993  20.6919  26.7522   C.2       1 RES1   0.0000
  1701 C53      0.0000  21.2341  23.8951   C.2       1 RES1   0.0000
  1702 C54      0.0000  23.3529  20.6919   C.2       1 RES1   0.0000
  1703 C55      8.9174  23.3529  23.8951   C.2       1 RES1   0.0000
  1704 C56      8.9174  21.2341  20.6919   C.2       1 RES1   0.0000
  1705 C57      6.0603  17.8348  21.2341   C.2       1 RES1   0.0000
  1706 C58      2.8571  17.8348  23.3529   C.2       1 RES1   0.0000
  1707 C59      6.0603  26.7522  23.3529   C.2       1 RES1   0.0000
  1708 C60      2.8571  26.7522  21.2341   C.2       1 RES1   0.0000
  1709 C61     14.4355  29.6093  35.6696   C.2       1 RES1   0.0000
  1710 C62     12.3167  32.8125  35.6696   C.2       1 RES1   0.0000
  1711 C63     12.3167  29.6093  26.7522   C.2       1 RES1   0.0000
  1712 C64     14.4355  32.8125  26.7522   C.2       1 RES1   0.0000
  1713 C65     17.8348  32.2703  29.6093   C.2       1 RES1   0.0000
  1714 C66     17.8348  30.1515  32.8125   C.2       1 RES1   0.0000
  1715 C67      8.9174  30.1515  29.6093   C.2       1 RES1   0.0000
  1716 C68      8.9174  32.2703  32.8125   C.2       1 RES1   0.0000
  1717 C69     11.7745  35.6696  32.2703   C.2       1 RES1   0.0000
  1718 C70     14.9777  35.6696  30.1515   C.2       1 RES1   0.0000
  1719 C71     11.7745  26.7522  30.1515   C.2       1 RES1   0.0000
  1720 C72     14.9777  26.7522  32.2703   C.2       1 RES1   0.0000
  1721 C73      4.5782  22.9445  17.8366   C.2       1 RES1   0.0000
  1722 C74      4.3392  21.6425  17.8366   C.2       1 RES1   0.0000
  1723 C75      4.3392  22.9445  26.7504   C.2       1 RES1   0.0000
  1724 C76      4.5782  21.6425  26.7504   C.2       1 RES1   0.0000
  1725 C77      0.0018  22.4130  22.9445   C.2       1 RES1   0.0000
  1726 C78      0.0018  22.1740  21.6425   C.2       1 RES1   0.0000
  1727 C79      8.9156  22.1740  22.9445   C.2       1 RES1   0.0000
  1728 C80      8.9156  22.4130  21.6425   C.2       1 RES1   0.0000
  1729 C81      5.1097  17.8366  22.4130   C.2       1 RES1   0.0000
  1730 C82      3.8077  17.8366  22.1740   C.2       1 RES1   0.0000
  1731 C83      5.1097  26.7504  22.1740   C.2       1 RES1   0.0000
  1732 C84      3.8077  26.7504  22.4130   C.2       1 RES1   0.0000
  1733 C85     13.2566  30.5599  35.6678   C.2       1 RES1   0.0000
  1734 C86     13.4956  31.8619  35.6678   C.2       1 RES1   0.0000
  1735 C87     13.4956  30.5599  26.7540   C.2       1 RES1   0.0000
  1736 C88     13.2566  31.8619  26.7540   C.2       1 RES1   0.0000
  1737 C89     17.8330  31.0914  30.5599   C.2       1 RES1   0.0000
  1738 C90     17.8330  31.3304  31.8619   C.2       1 RES1   0.0000
  1739 C91      8.9192  31.3304  30.5599   C.2       1 RES1   0.0000
  1740 C92      8.9192  31.0914  31.8619   C.2       1 RES1   0.0000
  1741 C93     12.7251  35.6678  31.0914   C.2       1 RES1   0.0000
  1742 C94     14.0271  35.6678  31.3304   C.2       1 RES1   0.0000
  1743 C95     12.7251  26.7540  31.3304   C.2       1 RES1   0.0000
  1744 C96     14.0271  26.7540  31.0914   C.2       1 RES1   0.0000
  1745 H25      5.4503  23.2673  17.8366   H         1 RES1   0.0000
  1746 H26      3.4671  21.3197  17.8366   H         1 RES1   0.0000
  1747 H27      3.4671  23.2673  26.7504   H         1 RES1   0.0000
  1748 H28      5.4503  21.3197  26.7504   H         1 RES1   0.0000
  1749 H29      0.0018  23.2851  23.2673   H         1 RES1   0.0000
  1750 H30      0.0018  21.3019  21.3197   H         1 RES1   0.0000
  1751 H31      8.9156  21.3019  23.2673   H         1 RES1   0.0000
  1752 H32      8.9156  23.2851  21.3197   H         1 RES1   0.0000
  1753 H33      5.4325  17.8366  23.2851   H         1 RES1   0.0000
  1754 H34      3.4849  17.8366  21.3019   H         1 RES1   0.0000
  1755 H35      5.4325  26.7504  21.3019   H         1 RES1   0.0000
  1756 H36      3.4849  26.7504  23.2851   H         1 RES1   0.0000
  1757 H37     12.3845  30.2371  35.6678   H         1 RES1   0.0000
  1758 H38     14.3677  32.1847  35.6678   H         1 RES1   0.0000
  1759 H39     14.3677  30.2371  26.7540   H         1 RES1   0.0000
  1760 H40     12.3845  32.1847  26.7540   H         1 RES1   0.0000
  1761 H41     17.8330  30.2193  30.2371   H         1 RES1   0.0000
  1762 H42     17.8330  32.2025  32.1847   H         1 RES1   0.0000
  1763 H43      8.9192  32.2025  30.2371   H         1 RES1   0.0000
  1764 H44      8.9192  30.2193  32.1847   H         1 RES1   0.0000
  1765 H45     12.4023  35.6678  30.2193   H         1 RES1   0.0000
  1766 H46     14.3499  35.6678  32.2025   H         1 RES1   0.0000
  1767 H47     12.4023  26.7540  32.2025   H         1 RES1   0.0000
  1768 H48     14.3499  26.7540  30.2193   H         1 RES1   0.0000
  1769 O97      1.3644  28.3877  34.5157   O3        1 RES1   0.0000
  1770 O98      7.5530  34.0341  34.5157   O3        1 RES1   0.0000
  1771 O99      7.5530  28.3877  27.9061   O3        1 RES1   0.0000
  1772 O100     1.3644  34.0341  27.9061   O3        1 RES1   0.0000
  1773 O101    16.6809  19.1992  28.3877   O3        1 RES1   0.0000
  1774 O102    16.6809  25.3878  34.0341   O3        1 RES1   0.0000
  1775 O103    10.0713  25.3878  28.3877   O3        1 RES1   0.0000
  1776 O105    10.5529  34.5157  19.1992   O3        1 RES1   0.0000
  1777 O106    16.1993  34.5157  25.3878   O3        1 RES1   0.0000
  1778 O107    10.5529  27.9061  25.3878   O3        1 RES1   0.0000
  1779 O111    10.2818  25.1167  25.5983   O3        1 RES1   0.0000
  1780 O112    16.4704  19.4703  25.5983   O3        1 RES1   0.0000
  1781 O113     1.1539  34.3052  25.1167   O3        1 RES1   0.0000
  1782 O114     1.1539  28.1166  19.4703   O3        1 RES1   0.0000
  1783 O115     7.7635  28.1166  25.1167   O3        1 RES1   0.0000
  1784 O116     7.7635  34.3052  19.4703   O3        1 RES1   0.0000
  1785 O119     7.2819  25.5983  28.1166   O3        1 RES1   0.0000
  1786 O155     7.5174  25.3522  25.3522   O3        1 RES1   0.0000
  1787 O157    16.4348  28.1522  34.2696   O3        1 RES1   0.0000
  1788 O158    10.3174  34.2696  34.2696   O3        1 RES1   0.0000
  1789 O159    10.3174  28.1522  28.1522   O3        1 RES1   0.0000
  1790 O160    16.4348  34.2696  28.1522   O3        1 RES1   0.0000
  1791 Zr1      2.4585  26.9507  35.8815   Zr        1 RES1   0.0000
  1792 Zr1     20.2933  26.9507  18.0467   Zr        1 RES1   0.0000
  1793 Zr2      6.4589  35.4711  35.8815   Zr        1 RES1   0.0000
  1794 Zr4     20.2933  35.4711  26.5403   Zr        1 RES1   0.0000
  1795 Zr5      0.2119  38.1281  26.9507   Zr        1 RES1   0.0000
  1796 Zr5     18.0467  20.2933  26.9507   Zr        1 RES1   0.0000
  1797 Zr6     18.0467  24.2937  35.4711   Zr        1 RES1   0.0000
  1798 Zr8      8.7055  38.1281  35.4711   Zr        1 RES1   0.0000
  1799 Zr9      9.1159  35.8815  20.2933   Zr        1 RES1   0.0000
  1800 Zr10    -0.1985  35.8815  24.2937   Zr        1 RES1   0.0000
  1801 Zr10    17.6363  35.8815  24.2937   Zr        1 RES1   0.0000
  1802 Zr12    -0.1985  26.5403  38.1281   Zr        1 RES1   0.0000
  1803 Zr12    17.6363  26.5403  38.1281   Zr        1 RES1   0.0000
  1804 Zr13    -2.4585  26.5537  35.4577   Zr        1 RES1   0.0000
  1805 Zr14    11.3759  35.8681  35.4577   Zr        1 RES1   0.0000
  1806 Zr16    -2.4585  35.8681  26.9641   Zr        1 RES1   0.0000
  1807 Zr16    15.3763  35.8681  26.9641   Zr        1 RES1   0.0000
  1808 Zr17    -0.2119  33.2111  26.5537   Zr        1 RES1   0.0000
  1809 Zr18    -0.2119  29.2107  35.8681   Zr        1 RES1   0.0000
  1810 Zr18    17.6229  29.2107  35.8681   Zr        1 RES1   0.0000
  1811 Zr20     9.1293  33.2111  35.8681   Zr        1 RES1   0.0000
  1812 Zr22    18.0333  35.4577  29.2107   Zr        1 RES1   0.0000
  1813 Zr24    18.0333  26.9641  33.2111   Zr        1 RES1   0.0000
  1814 O2       5.1899  37.3015  17.9775   Oco2      1 RES1   0.0000
  1815 O4       3.7275  37.3015  26.6095   Oco2      1 RES1   0.0000
  1816 O6       0.1427  23.0247  37.3015   Oco2      1 RES1   0.0000
  1817 O8       8.7747  21.5623  37.3015   Oco2      1 RES1   0.0000
  1818 O10     19.4667  17.9775  23.0247   Oco2      1 RES1   0.0000
  1819 O12     19.4667  26.6095  21.5623   Oco2      1 RES1   0.0000
  1820 O22     -1.6319  35.5269  30.4797   O.2       1 RES1   0.0000
  1821 O24     -1.6319  26.8949  31.9421   O.2       1 RES1   0.0000
  1822 O50      5.5359  35.5394  20.0873   Oco2      1 RES1   0.0000
  1823 O52      3.3815  35.5394  24.4997   Oco2      1 RES1   0.0000
  1824 O54      2.2525  23.3707  35.5394   Oco2      1 RES1   0.0000
  1825 O56      6.6649  21.2163  35.5394   Oco2      1 RES1   0.0000
  1826 O58     17.7046  20.0873  23.3707   Oco2      1 RES1   0.0000
  1827 O60     17.7046  24.4997  21.2163   Oco2      1 RES1   0.0000
  1828 O70      0.1302  33.4171  30.1337   O.2       1 RES1   0.0000
  1829 O72      0.1302  29.0047  32.2881   O.2       1 RES1   0.0000
  1830 O77     -1.6158  21.5587  27.1785   O.2       1 RES1   0.0000
  1831 O78     -1.6158  23.0283  35.2433   O.2       1 RES1   0.0000
  1832 O85     14.1109  26.3259  37.2854   Oco2      1 RES1   0.0000
  1833 O86     12.6413  18.2611  37.2854   Oco2      1 RES1   0.0000
  1834 O89     19.4506  31.9457  26.3259   Oco2      1 RES1   0.0000
  1835 O90     19.4506  30.4761  18.2611   Oco2      1 RES1   0.0000
  1836 O93      8.4911  37.2854  31.9457   Oco2      1 RES1   0.0000
  1837 O94      0.4263  37.2854  30.4761   Oco2      1 RES1   0.0000
  1838 O97     19.1992  28.3877  16.6809   O3        1 RES1   0.0000
  1839 O100    19.1992  34.0341  27.9061   O3        1 RES1   0.0000
  1840 O101    -1.1539  37.0340  28.3877   O3        1 RES1   0.0000
  1841 O102    -1.1539  25.3878  34.0341   O3        1 RES1   0.0000
  1842 O104    10.0713  37.0340  34.0341   O3        1 RES1   0.0000
  1843 O108    16.1993  27.9061  37.0340   O3        1 RES1   0.0000
  1844 O109    -1.3644  25.1167  36.8235   O3        1 RES1   0.0000
  1845 O109    16.4704  25.1167  36.8235   O3        1 RES1   0.0000
  1846 O110    10.2818  19.4703  36.8235   O3        1 RES1   0.0000
  1847 O112    -1.3644  19.4703  25.5983   O3        1 RES1   0.0000
  1848 O113    18.9887  34.3052  25.1167   O3        1 RES1   0.0000
  1849 O114    18.9887  28.1166  19.4703   O3        1 RES1   0.0000
  1850 O117     7.2819  36.8235  34.3052   O3        1 RES1   0.0000
  1851 O118     1.6355  36.8235  28.1166   O3        1 RES1   0.0000
  1852 O120     1.6355  25.5983  16.4704   O3        1 RES1   0.0000
  1853 O153     1.4000  25.3522  37.0696   O3        1 RES1   0.0000
  1854 O153    19.2348  25.3522  19.2348   O3        1 RES1   0.0000
  1855 O154     7.5174  37.0696  19.2348   O3        1 RES1   0.0000
  1856 O156     1.4000  37.0696  25.3522   O3        1 RES1   0.0000
  1857 O156    19.2348  19.2348  25.3522   O3        1 RES1   0.0000
  1858 O157    -1.4000  28.1522  34.2696   O3        1 RES1   0.0000
  1859 O160    -1.4000  34.2696  28.1522   O3        1 RES1   0.0000
  1860 Zr3      6.4589  26.9507  44.3751   Zr        1 RES1   0.0000
  1861 Zr4      2.4585  35.4711  44.3751   Zr        1 RES1   0.0000
  1862 Zr6      0.2119  24.2937  53.3059   Zr        1 RES1   0.0000
  1863 Zr7      8.7055  24.2937  44.7855   Zr        1 RES1   0.0000
  1864 Zr11     9.1159  26.5403  42.1285   Zr        1 RES1   0.0000
  1865 Zr13    15.3763  26.5537  53.2925   Zr        1 RES1   0.0000
  1866 Zr15    11.3759  26.5537  44.7989   Zr        1 RES1   0.0000
  1867 Zr17    17.6229  33.2111  44.3885   Zr        1 RES1   0.0000
  1868 Zr19     9.1293  29.2107  44.3885   Zr        1 RES1   0.0000
  1869 Zr21     8.7189  35.4577  51.0459   Zr        1 RES1   0.0000
  1870 Zr22     0.1985  35.4577  47.0455   Zr        1 RES1   0.0000
  1871 Zr23     8.7189  26.9641  47.0455   Zr        1 RES1   0.0000
  1872 Zr24     0.1985  26.9641  51.0459   Zr        1 RES1   0.0000
  1873 O1       3.7275  25.1203  35.8123   Oco2      1 RES1   0.0000
  1874 O3       5.1899  25.1203  44.4443   Oco2      1 RES1   0.0000
  1875 O5       0.1427  21.5623  42.9551   Oco2      1 RES1   0.0000
  1876 O7       8.7747  23.0247  42.9551   Oco2      1 RES1   0.0000
  1877 O9       7.2855  17.9775  39.3971   Oco2      1 RES1   0.0000
  1878 O10      1.6319  17.9775  40.8595   Oco2      1 RES1   0.0000
  1879 O11      7.2855  26.6095  40.8595   Oco2      1 RES1   0.0000
  1880 O12      1.6319  26.6095  39.3971   Oco2      1 RES1   0.0000
  1881 O13     14.1073  28.3841  53.3617   Oco2      1 RES1   0.0000
  1882 O14     12.6449  34.0377  53.3617   Oco2      1 RES1   0.0000
  1883 O15     12.6449  28.3841  44.7297   Oco2      1 RES1   0.0000
  1884 O16     14.1073  34.0377  44.7297   Oco2      1 RES1   0.0000
  1885 O17     17.6921  31.9421  46.2189   Oco2      1 RES1   0.0000
  1886 O18     17.6921  30.4797  51.8725   Oco2      1 RES1   0.0000
  1887 O19      9.0601  30.4797  46.2189   Oco2      1 RES1   0.0000
  1888 O20      9.0601  31.9421  51.8725   Oco2      1 RES1   0.0000
  1889 O21     10.5493  35.5269  49.7769   Oco2      1 RES1   0.0000
  1890 O22     16.2029  35.5269  48.3145   Oco2      1 RES1   0.0000
  1891 O23     10.5493  26.8949  48.3145   Oco2      1 RES1   0.0000
  1892 O24     16.2029  26.8949  49.7769   Oco2      1 RES1   0.0000
  1893 O25      3.3957  28.9744  36.1083   Oco2      1 RES1   0.0000
  1894 O26      5.5217  33.4474  36.1083   Oco2      1 RES1   0.0000
  1895 O27      5.5217  28.9744  44.1483   Oco2      1 RES1   0.0000
  1896 O28      3.3957  33.4474  44.1483   Oco2      1 RES1   0.0000
  1897 O29      0.4387  21.2305  46.8092   Oco2      1 RES1   0.0000
  1898 O30      0.4387  23.3565  51.2822   Oco2      1 RES1   0.0000
  1899 O31      8.4787  23.3565  46.8092   Oco2      1 RES1   0.0000
  1900 O32      8.4787  21.2305  51.2822   Oco2      1 RES1   0.0000
  1901 O33     11.1396  18.2735  39.0653   Oco2      1 RES1   0.0000
  1902 O34     15.6126  18.2735  41.1913   Oco2      1 RES1   0.0000
  1903 O35     11.1396  26.3135  41.1913   Oco2      1 RES1   0.0000
  1904 O36     15.6126  26.3135  39.0653   Oco2      1 RES1   0.0000
  1905 O37     14.4391  24.5300  53.0657   Oco2      1 RES1   0.0000
  1906 O38     12.3131  20.0570  53.0657   Oco2      1 RES1   0.0000
  1907 O39     12.3131  24.5300  45.0257   Oco2      1 RES1   0.0000
  1908 O40     14.4391  20.0570  45.0257   Oco2      1 RES1   0.0000
  1909 O41     17.3961  32.2739  42.3648   Oco2      1 RES1   0.0000
  1910 O42     17.3961  30.1479  37.8918   Oco2      1 RES1   0.0000
  1911 O43      9.3561  30.1479  42.3648   Oco2      1 RES1   0.0000
  1912 O44      9.3561  32.2739  37.8918   Oco2      1 RES1   0.0000
  1913 O45      6.6952  35.2309  50.1087   Oco2      1 RES1   0.0000
  1914 O46      2.2222  35.2309  47.9827   Oco2      1 RES1   0.0000
  1915 O47      6.6952  27.1909  47.9827   Oco2      1 RES1   0.0000
  1916 O48      2.2222  27.1909  50.1087   Oco2      1 RES1   0.0000
  1917 O49      3.3815  26.8824  37.9221   Oco2      1 RES1   0.0000
  1918 O51      5.5359  26.8824  42.3345   Oco2      1 RES1   0.0000
  1919 O53      2.2525  21.2163  44.7172   Oco2      1 RES1   0.0000
  1920 O55      6.6649  23.3707  44.7172   Oco2      1 RES1   0.0000
  1921 O57      9.0476  20.0873  39.0511   Oco2      1 RES1   0.0000
  1922 O58     -0.1302  20.0873  41.2055   Oco2      1 RES1   0.0000
  1923 O59      9.0476  24.4997  41.2055   Oco2      1 RES1   0.0000
  1924 O60     -0.1302  24.4997  39.0511   Oco2      1 RES1   0.0000
  1925 O61     14.4533  26.6220  51.2519   Oco2      1 RES1   0.0000
  1926 O62     12.2989  35.7998  51.2519   Oco2      1 RES1   0.0000
  1927 O63     12.2989  26.6220  46.8395   Oco2      1 RES1   0.0000
  1928 O64     14.4533  35.7998  46.8395   Oco2      1 RES1   0.0000
  1929 O65     15.5823  32.2881  44.4568   Oco2      1 RES1   0.0000
  1930 O66     15.5823  30.1337  53.6346   Oco2      1 RES1   0.0000
  1931 O67     11.1699  30.1337  44.4568   Oco2      1 RES1   0.0000
  1932 O68     11.1699  32.2881  53.6346   Oco2      1 RES1   0.0000
  1933 O69      8.7872  33.4171  50.1229   Oco2      1 RES1   0.0000
  1934 O70     17.9650  33.4171  47.9685   Oco2      1 RES1   0.0000
  1935 O71      8.7872  29.0047  47.9685   Oco2      1 RES1   0.0000
  1936 O72     17.9650  29.0047  50.1229   Oco2      1 RES1   0.0000
  1937 O73      3.7239  27.1785  51.8886   Oco2      1 RES1   0.0000
  1938 O74      5.1935  35.2433  51.8886   Oco2      1 RES1   0.0000
  1939 O75      5.1935  27.1785  46.2028   Oco2      1 RES1   0.0000
  1940 O76      3.7239  35.2433  46.2028   Oco2      1 RES1   0.0000
  1941 O77     16.2190  21.5587  45.0133   Oco2      1 RES1   0.0000
  1942 O78     16.2190  23.0283  53.0781   Oco2      1 RES1   0.0000
  1943 O79     10.5332  23.0283  45.0133   Oco2      1 RES1   0.0000
  1944 O80     10.5332  21.5587  53.0781   Oco2      1 RES1   0.0000
  1945 O81      9.3437  34.0538  39.3935   Oco2      1 RES1   0.0000
  1946 O82     17.4085  34.0538  40.8631   Oco2      1 RES1   0.0000
  1947 O83      9.3437  28.3680  40.8631   Oco2      1 RES1   0.0000
  1948 O84     17.4085  28.3680  39.3935   Oco2      1 RES1   0.0000
  1949 O87     12.6413  26.3259  42.9712   Oco2      1 RES1   0.0000
  1950 O88     14.1109  18.2611  42.9712   Oco2      1 RES1   0.0000
  1951 O89      1.6158  31.9457  44.1607   Oco2      1 RES1   0.0000
  1952 O90      1.6158  30.4761  36.0959   Oco2      1 RES1   0.0000
  1953 O91      7.3016  30.4761  44.1607   Oco2      1 RES1   0.0000
  1954 O92      7.3016  31.9457  36.0959   Oco2      1 RES1   0.0000
  1955 O95      8.4911  25.1364  48.3109   Oco2      1 RES1   0.0000
  1956 O96      0.4263  25.1364  49.7805   Oco2      1 RES1   0.0000
  1957 C1       2.8607  30.1248  36.0976   C.2       1 RES1   0.0000
  1958 C2       6.0567  32.2970  36.0976   C.2       1 RES1   0.0000
  1959 C3       6.0567  30.1248  44.1590   C.2       1 RES1   0.0000
  1960 C4       2.8607  32.2970  44.1590   C.2       1 RES1   0.0000
  1961 C5       0.4280  20.6955  47.9596   C.2       1 RES1   0.0000
  1962 C6       0.4280  23.8915  50.1318   C.2       1 RES1   0.0000
  1963 C7       8.4894  23.8915  47.9596   C.2       1 RES1   0.0000
  1964 C8       8.4894  20.6955  50.1318   C.2       1 RES1   0.0000
  1965 C9      12.2900  18.2628  38.5303   C.2       1 RES1   0.0000
  1966 C10     14.4622  18.2628  41.7263   C.2       1 RES1   0.0000
  1967 C11     12.2900  26.3242  41.7263   C.2       1 RES1   0.0000
  1968 C12     14.4622  26.3242  38.5303   C.2       1 RES1   0.0000
  1969 C13     14.9741  23.3796  53.0764   C.2       1 RES1   0.0000
  1970 C14     11.7781  21.2074  53.0764   C.2       1 RES1   0.0000
  1971 C15     11.7781  23.3796  45.0150   C.2       1 RES1   0.0000
  1972 C16     14.9741  21.2074  45.0150   C.2       1 RES1   0.0000
  1973 C17     17.4068  32.8089  41.2144   C.2       1 RES1   0.0000
  1974 C18     17.4068  29.6129  39.0422   C.2       1 RES1   0.0000
  1975 C19      9.3454  29.6129  41.2144   C.2       1 RES1   0.0000
  1976 C20      9.3454  32.8089  39.0422   C.2       1 RES1   0.0000
  1977 C21      5.5448  35.2416  50.6437   C.2       1 RES1   0.0000
  1978 C22      3.3726  35.2416  47.4477   C.2       1 RES1   0.0000
  1979 C23      5.5448  27.1802  47.4477   C.2       1 RES1   0.0000
  1980 C24      3.3726  27.1802  50.6437   C.2       1 RES1   0.0000
  1981 C25      3.8202  31.3090  36.1030   C.2       1 RES1   0.0000
  1982 C26      5.0972  31.1128  36.1030   C.2       1 RES1   0.0000
  1983 C27      5.0972  31.3090  44.1536   C.2       1 RES1   0.0000
  1984 C28      3.8202  31.1128  44.1536   C.2       1 RES1   0.0000
  1985 C29      0.4334  21.6550  49.1438   C.2       1 RES1   0.0000
  1986 C30      0.4334  22.9320  48.9476   C.2       1 RES1   0.0000
  1987 C31      8.4840  22.9320  49.1438   C.2       1 RES1   0.0000
  1988 C32      8.4840  21.6550  48.9476   C.2       1 RES1   0.0000
  1989 C33     13.4742  18.2682  39.4898   C.2       1 RES1   0.0000
  1990 C34     13.2780  18.2682  40.7668   C.2       1 RES1   0.0000
  1991 C35     13.4742  26.3188  40.7668   C.2       1 RES1   0.0000
  1992 C36     13.2780  26.3188  39.4898   C.2       1 RES1   0.0000
  1993 C37     14.0146  22.1954  53.0710   C.2       1 RES1   0.0000
  1994 C38     12.7376  22.3916  53.0710   C.2       1 RES1   0.0000
  1995 C39     12.7376  22.1954  45.0204   C.2       1 RES1   0.0000
  1996 C40     14.0146  22.3916  45.0204   C.2       1 RES1   0.0000
  1997 C41     17.4014  31.8494  40.0302   C.2       1 RES1   0.0000
  1998 C42     17.4014  30.5724  40.2264   C.2       1 RES1   0.0000
  1999 C43      9.3508  30.5724  40.0302   C.2       1 RES1   0.0000
  2000 C44      9.3508  31.8494  40.2264   C.2       1 RES1   0.0000
  2001 C45      4.3606  35.2362  49.6842   C.2       1 RES1   0.0000
  2002 C46      4.5568  35.2362  48.4072   C.2       1 RES1   0.0000
  2003 C47      4.3606  27.1856  48.4072   C.2       1 RES1   0.0000
  2004 C48      4.5568  27.1856  49.6842   C.2       1 RES1   0.0000
  2005 H1       3.4867  32.1775  36.1048   H         1 RES1   0.0000
  2006 H2       5.4307  30.2443  36.1048   H         1 RES1   0.0000
  2007 H3       5.4307  32.1775  44.1518   H         1 RES1   0.0000
  2008 H4       3.4867  30.2443  44.1518   H         1 RES1   0.0000
  2009 H5       0.4352  21.3215  50.0123   H         1 RES1   0.0000
  2010 H6       0.4352  23.2655  48.0791   H         1 RES1   0.0000
  2011 H7       8.4822  23.2655  50.0123   H         1 RES1   0.0000
  2012 H8       8.4822  21.3215  48.0791   H         1 RES1   0.0000
  2013 H9      14.3427  18.2700  39.1563   H         1 RES1   0.0000
  2014 H10     12.4095  18.2700  41.1003   H         1 RES1   0.0000
  2015 H11     14.3427  26.3170  41.1003   H         1 RES1   0.0000
  2016 H12     12.4095  26.3170  39.1563   H         1 RES1   0.0000
  2017 H13     14.3481  21.3269  53.0692   H         1 RES1   0.0000
  2018 H14     12.4041  23.2601  53.0692   H         1 RES1   0.0000
  2019 H15     12.4041  21.3269  45.0222   H         1 RES1   0.0000
  2020 H16     14.3481  23.2601  45.0222   H         1 RES1   0.0000
  2021 H17     17.3996  32.1829  39.1617   H         1 RES1   0.0000
  2022 H18     17.3996  30.2389  41.0949   H         1 RES1   0.0000
  2023 H19      9.3526  30.2389  39.1617   H         1 RES1   0.0000
  2024 H20      9.3526  32.1829  41.0949   H         1 RES1   0.0000
  2025 H21      3.4921  35.2344  50.0177   H         1 RES1   0.0000
  2026 H22      5.4253  35.2344  48.0737   H         1 RES1   0.0000
  2027 H23      3.4921  27.1874  48.0737   H         1 RES1   0.0000
  2028 H24      5.4253  27.1874  50.0177   H         1 RES1   0.0000
  2029 C49      3.3993  23.8951  35.6696   C.2       1 RES1   0.0000
  2030 C50      5.5181  20.6919  35.6696   C.2       1 RES1   0.0000
  2031 C51      5.5181  23.8951  44.5870   C.2       1 RES1   0.0000
  2032 C52      3.3993  20.6919  44.5870   C.2       1 RES1   0.0000
  2033 C53      0.0000  21.2341  41.7299   C.2       1 RES1   0.0000
  2034 C54      0.0000  23.3529  38.5267   C.2       1 RES1   0.0000
  2035 C55      8.9174  23.3529  41.7299   C.2       1 RES1   0.0000
  2036 C56      8.9174  21.2341  38.5267   C.2       1 RES1   0.0000
  2037 C57      6.0603  17.8348  39.0689   C.2       1 RES1   0.0000
  2038 C58      2.8571  17.8348  41.1877   C.2       1 RES1   0.0000
  2039 C59      6.0603  26.7522  41.1877   C.2       1 RES1   0.0000
  2040 C60      2.8571  26.7522  39.0689   C.2       1 RES1   0.0000
  2041 C61     14.4355  29.6093  53.5044   C.2       1 RES1   0.0000
  2042 C62     12.3167  32.8125  53.5044   C.2       1 RES1   0.0000
  2043 C63     12.3167  29.6093  44.5870   C.2       1 RES1   0.0000
  2044 C64     14.4355  32.8125  44.5870   C.2       1 RES1   0.0000
  2045 C65     17.8348  32.2703  47.4441   C.2       1 RES1   0.0000
  2046 C66     17.8348  30.1515  50.6473   C.2       1 RES1   0.0000
  2047 C67      8.9174  30.1515  47.4441   C.2       1 RES1   0.0000
  2048 C68      8.9174  32.2703  50.6473   C.2       1 RES1   0.0000
  2049 C69     11.7745  35.6696  50.1051   C.2       1 RES1   0.0000
  2050 C70     14.9777  35.6696  47.9863   C.2       1 RES1   0.0000
  2051 C71     11.7745  26.7522  47.9863   C.2       1 RES1   0.0000
  2052 C72     14.9777  26.7522  50.1051   C.2       1 RES1   0.0000
  2053 C73      4.5782  22.9445  35.6714   C.2       1 RES1   0.0000
  2054 C74      4.3392  21.6425  35.6714   C.2       1 RES1   0.0000
  2055 C75      4.3392  22.9445  44.5852   C.2       1 RES1   0.0000
  2056 C76      4.5782  21.6425  44.5852   C.2       1 RES1   0.0000
  2057 C77      0.0018  22.4130  40.7793   C.2       1 RES1   0.0000
  2058 C78      0.0018  22.1740  39.4773   C.2       1 RES1   0.0000
  2059 C79      8.9156  22.1740  40.7793   C.2       1 RES1   0.0000
  2060 C80      8.9156  22.4130  39.4773   C.2       1 RES1   0.0000
  2061 C81      5.1097  17.8366  40.2478   C.2       1 RES1   0.0000
  2062 C82      3.8077  17.8366  40.0088   C.2       1 RES1   0.0000
  2063 C83      5.1097  26.7504  40.0088   C.2       1 RES1   0.0000
  2064 C84      3.8077  26.7504  40.2478   C.2       1 RES1   0.0000
  2065 C85     13.2566  30.5599  53.5026   C.2       1 RES1   0.0000
  2066 C86     13.4956  31.8619  53.5026   C.2       1 RES1   0.0000
  2067 C87     13.4956  30.5599  44.5888   C.2       1 RES1   0.0000
  2068 C88     13.2566  31.8619  44.5888   C.2       1 RES1   0.0000
  2069 C89     17.8330  31.0914  48.3947   C.2       1 RES1   0.0000
  2070 C90     17.8330  31.3304  49.6967   C.2       1 RES1   0.0000
  2071 C91      8.9192  31.3304  48.3947   C.2       1 RES1   0.0000
  2072 C92      8.9192  31.0914  49.6967   C.2       1 RES1   0.0000
  2073 C93     12.7251  35.6678  48.9262   C.2       1 RES1   0.0000
  2074 C94     14.0271  35.6678  49.1652   C.2       1 RES1   0.0000
  2075 C95     12.7251  26.7540  49.1652   C.2       1 RES1   0.0000
  2076 C96     14.0271  26.7540  48.9262   C.2       1 RES1   0.0000
  2077 H25      5.4503  23.2673  35.6714   H         1 RES1   0.0000
  2078 H26      3.4671  21.3197  35.6714   H         1 RES1   0.0000
  2079 H27      3.4671  23.2673  44.5852   H         1 RES1   0.0000
  2080 H28      5.4503  21.3197  44.5852   H         1 RES1   0.0000
  2081 H29      0.0018  23.2851  41.1021   H         1 RES1   0.0000
  2082 H30      0.0018  21.3019  39.1545   H         1 RES1   0.0000
  2083 H31      8.9156  21.3019  41.1021   H         1 RES1   0.0000
  2084 H32      8.9156  23.2851  39.1545   H         1 RES1   0.0000
  2085 H33      5.4325  17.8366  41.1199   H         1 RES1   0.0000
  2086 H34      3.4849  17.8366  39.1367   H         1 RES1   0.0000
  2087 H35      5.4325  26.7504  39.1367   H         1 RES1   0.0000
  2088 H36      3.4849  26.7504  41.1199   H         1 RES1   0.0000
  2089 H37     12.3845  30.2371  53.5026   H         1 RES1   0.0000
  2090 H38     14.3677  32.1847  53.5026   H         1 RES1   0.0000
  2091 H39     14.3677  30.2371  44.5888   H         1 RES1   0.0000
  2092 H40     12.3845  32.1847  44.5888   H         1 RES1   0.0000
  2093 H41     17.8330  30.2193  48.0719   H         1 RES1   0.0000
  2094 H42     17.8330  32.2025  50.0195   H         1 RES1   0.0000
  2095 H43      8.9192  32.2025  48.0719   H         1 RES1   0.0000
  2096 H44      8.9192  30.2193  50.0195   H         1 RES1   0.0000
  2097 H45     12.4023  35.6678  48.0541   H         1 RES1   0.0000
  2098 H46     14.3499  35.6678  50.0373   H         1 RES1   0.0000
  2099 H47     12.4023  26.7540  50.0373   H         1 RES1   0.0000
  2100 H48     14.3499  26.7540  48.0541   H         1 RES1   0.0000
  2101 O97      1.3644  28.3877  52.3505   O3        1 RES1   0.0000
  2102 O98      7.5530  34.0341  52.3505   O3        1 RES1   0.0000
  2103 O99      7.5530  28.3877  45.7409   O3        1 RES1   0.0000
  2104 O100     1.3644  34.0341  45.7409   O3        1 RES1   0.0000
  2105 O101    16.6809  19.1992  46.2225   O3        1 RES1   0.0000
  2106 O102    16.6809  25.3878  51.8689   O3        1 RES1   0.0000
  2107 O103    10.0713  25.3878  46.2225   O3        1 RES1   0.0000
  2108 O105    10.5529  34.5157  37.0340   O3        1 RES1   0.0000
  2109 O106    16.1993  34.5157  43.2226   O3        1 RES1   0.0000
  2110 O107    10.5529  27.9061  43.2226   O3        1 RES1   0.0000
  2111 O111    10.2818  25.1167  43.4331   O3        1 RES1   0.0000
  2112 O112    16.4704  19.4703  43.4331   O3        1 RES1   0.0000
  2113 O113     1.1539  34.3052  42.9515   O3        1 RES1   0.0000
  2114 O114     1.1539  28.1166  37.3051   O3        1 RES1   0.0000
  2115 O115     7.7635  28.1166  42.9515   O3        1 RES1   0.0000
  2116 O116     7.7635  34.3052  37.3051   O3        1 RES1   0.0000
  2117 O119     7.2819  25.5983  45.9514   O3        1 RES1   0.0000
  2118 O155     7.5174  25.3522  43.1870   O3        1 RES1   0.0000
  2119 O157    16.4348  28.1522  52.1044   O3        1 RES1   0.0000
  2120 O158    10.3174  34.2696  52.1044   O3        1 RES1   0.0000
  2121 O159    10.3174  28.1522  45.9870   O3        1 RES1   0.0000
  2122 O160    16.4348  34.2696  45.9870   O3        1 RES1   0.0000
  2123 Zr1      2.4585  26.9507  53.7163   Zr        1 RES1   0.0000
  2124 Zr1     20.2933  26.9507  35.8815   Zr        1 RES1   0.0000
  2125 Zr2      6.4589  35.4711  53.7163   Zr        1 RES1   0.0000
  2126 Zr4     20.2933  35.4711  44.3751   Zr        1 RES1   0.0000
  2127 Zr5      0.2119  38.1281  44.7855   Zr        1 RES1   0.0000
  2128 Zr5     18.0467  20.2933  44.7855   Zr        1 RES1   0.0000
  2129 Zr6     18.0467  24.2937  53.3059   Zr        1 RES1   0.0000
  2130 Zr8      8.7055  38.1281  53.3059   Zr        1 RES1   0.0000
  2131 Zr9      9.1159  18.0467  55.9629   Zr        1 RES1   0.0000
  2132 Zr9      9.1159  35.8815  38.1281   Zr        1 RES1   0.0000
  2133 Zr10    -0.1985  35.8815  42.1285   Zr        1 RES1   0.0000
  2134 Zr10    17.6363  35.8815  42.1285   Zr        1 RES1   0.0000
  2135 Zr12    -0.1985  26.5403  55.9629   Zr        1 RES1   0.0000
  2136 Zr12    17.6363  26.5403  55.9629   Zr        1 RES1   0.0000
  2137 Zr13    -2.4585  26.5537  53.2925   Zr        1 RES1   0.0000
  2138 Zr14    11.3759  35.8681  53.2925   Zr        1 RES1   0.0000
  2139 Zr16    -2.4585  35.8681  44.7989   Zr        1 RES1   0.0000
  2140 Zr16    15.3763  35.8681  44.7989   Zr        1 RES1   0.0000
  2141 Zr17    -0.2119  33.2111  44.3885   Zr        1 RES1   0.0000
  2142 Zr18    -0.2119  29.2107  53.7029   Zr        1 RES1   0.0000
  2143 Zr18    17.6229  29.2107  53.7029   Zr        1 RES1   0.0000
  2144 Zr20     9.1293  33.2111  53.7029   Zr        1 RES1   0.0000
  2145 Zr22    18.0333  35.4577  47.0455   Zr        1 RES1   0.0000
  2146 Zr24    18.0333  26.9641  51.0459   Zr        1 RES1   0.0000
  2147 O2       5.1899  37.3015  35.8123   Oco2      1 RES1   0.0000
  2148 O4       3.7275  37.3015  44.4443   Oco2      1 RES1   0.0000
  2149 O6       0.1427  23.0247  55.1363   O.2       1 RES1   0.0000
  2150 O8       8.7747  21.5623  55.1363   O.2       1 RES1   0.0000
  2151 O10     19.4667  17.9775  40.8595   Oco2      1 RES1   0.0000
  2152 O12     19.4667  26.6095  39.3971   Oco2      1 RES1   0.0000
  2153 O22     -1.6319  35.5269  48.3145   O.2       1 RES1   0.0000
  2154 O24     -1.6319  26.8949  49.7769   O.2       1 RES1   0.0000
  2155 O50      5.5359  35.5394  37.9221   Oco2      1 RES1   0.0000
  2156 O52      3.3815  35.5394  42.3345   Oco2      1 RES1   0.0000
  2157 O54      2.2525  23.3707  53.3742   O.2       1 RES1   0.0000
  2158 O56      6.6649  21.2163  53.3742   O.2       1 RES1   0.0000
  2159 O58     17.7046  20.0873  41.2055   Oco2      1 RES1   0.0000
  2160 O60     17.7046  24.4997  39.0511   Oco2      1 RES1   0.0000
  2161 O70      0.1302  33.4171  47.9685   O.2       1 RES1   0.0000
  2162 O72      0.1302  29.0047  50.1229   O.2       1 RES1   0.0000
  2163 O77     -1.6158  21.5587  45.0133   O.2       1 RES1   0.0000
  2164 O78     -1.6158  23.0283  53.0781   O.2       1 RES1   0.0000
  2165 O85     14.1109  26.3259  55.1202   O.2       1 RES1   0.0000
  2166 O86     12.6413  18.2611  55.1202   O.2       1 RES1   0.0000
  2167 O89     19.4506  31.9457  44.1607   Oco2      1 RES1   0.0000
  2168 O90     19.4506  30.4761  36.0959   Oco2      1 RES1   0.0000
  2169 O93      8.4911  37.2854  49.7805   Oco2      1 RES1   0.0000
  2170 O94      0.4263  37.2854  48.3109   Oco2      1 RES1   0.0000
  2171 O97     19.1992  28.3877  34.5157   O3        1 RES1   0.0000
  2172 O100    19.1992  34.0341  45.7409   O3        1 RES1   0.0000
  2173 O101    -1.1539  37.0340  46.2225   O3        1 RES1   0.0000
  2174 O102    -1.1539  25.3878  51.8689   O3        1 RES1   0.0000
  2175 O104    10.0713  37.0340  51.8689   O3        1 RES1   0.0000
  2176 O105    10.5529  16.6809  54.8688   O3        1 RES1   0.0000
  2177 O108    16.1993  27.9061  54.8688   O3        1 RES1   0.0000
  2178 O109    -1.3644  25.1167  54.6583   O3        1 RES1   0.0000
  2179 O109    16.4704  25.1167  54.6583   O3        1 RES1   0.0000
  2180 O110    10.2818  19.4703  54.6583   O3        1 RES1   0.0000
  2181 O112    -1.3644  19.4703  43.4331   O3        1 RES1   0.0000
  2182 O113    18.9887  34.3052  42.9515   O3        1 RES1   0.0000
  2183 O114    18.9887  28.1166  37.3051   O3        1 RES1   0.0000
  2184 O117     7.2819  36.8235  52.1400   O3        1 RES1   0.0000
  2185 O118     1.6355  36.8235  45.9514   O3        1 RES1   0.0000
  2186 O120     1.6355  25.5983  34.3052   O3        1 RES1   0.0000
  2187 O153     1.4000  25.3522  54.9044   O3        1 RES1   0.0000
  2188 O153    19.2348  25.3522  37.0696   O3        1 RES1   0.0000
  2189 O154     7.5174  19.2348  54.9044   O3        1 RES1   0.0000
  2190 O154     7.5174  37.0696  37.0696   O3        1 RES1   0.0000
  2191 O156     1.4000  37.0696  43.1870   O3        1 RES1   0.0000
  2192 O156    19.2348  19.2348  43.1870   O3        1 RES1   0.0000
  2193 O157    -1.4000  28.1522  52.1044   O3        1 RES1   0.0000
  2194 O160    -1.4000  34.2696  45.9870   O3        1 RES1   0.0000
  2195 Zr1      2.4585  44.7855   0.2119   Zr        1 RES1   0.0000
  2196 Zr2      6.4589  53.3059   0.2119   Zr        1 RES1   0.0000
  2197 Zr3      6.4589  44.7855   8.7055   Zr        1 RES1   0.0000
  2198 Zr4      2.4585  53.3059   8.7055   Zr        1 RES1   0.0000
  2199 Zr6      0.2119  42.1285  17.6363   Zr        1 RES1   0.0000
  2200 Zr7      8.7055  42.1285   9.1159   Zr        1 RES1   0.0000
  2201 Zr11     9.1159  44.3751   6.4589   Zr        1 RES1   0.0000
  2202 Zr12    17.6363  44.3751   2.4585   Zr        1 RES1   0.0000
  2203 Zr13    15.3763  44.3885  17.6229   Zr        1 RES1   0.0000
  2204 Zr15    11.3759  44.3885   9.1293   Zr        1 RES1   0.0000
  2205 Zr17    17.6229  51.0459   8.7189   Zr        1 RES1   0.0000
  2206 Zr18    17.6229  47.0455   0.1985   Zr        1 RES1   0.0000
  2207 Zr19     9.1293  47.0455   8.7189   Zr        1 RES1   0.0000
  2208 Zr20     9.1293  51.0459   0.1985   Zr        1 RES1   0.0000
  2209 Zr21     8.7189  53.2925  15.3763   Zr        1 RES1   0.0000
  2210 Zr22     0.1985  53.2925  11.3759   Zr        1 RES1   0.0000
  2211 Zr23     8.7189  44.7989  11.3759   Zr        1 RES1   0.0000
  2212 Zr24     0.1985  44.7989  15.3763   Zr        1 RES1   0.0000
  2213 O1       3.7275  42.9551   0.1427   Oco2      1 RES1   0.0000
  2214 O3       5.1899  42.9551   8.7747   Oco2      1 RES1   0.0000
  2215 O5       0.1427  39.3971   7.2855   Oco2      1 RES1   0.0000
  2216 O6       0.1427  40.8595   1.6319   Oco2      1 RES1   0.0000
  2217 O7       8.7747  40.8595   7.2855   Oco2      1 RES1   0.0000
  2218 O8       8.7747  39.3971   1.6319   Oco2      1 RES1   0.0000
  2219 O9       7.2855  35.8123   3.7275   Oco2      1 RES1   0.0000
  2220 O10      1.6319  35.8123   5.1899   Oco2      1 RES1   0.0000
  2221 O11      7.2855  44.4443   5.1899   Oco2      1 RES1   0.0000
  2222 O12      1.6319  44.4443   3.7275   Oco2      1 RES1   0.0000
  2223 O13     14.1073  46.2189  17.6921   Oco2      1 RES1   0.0000
  2224 O14     12.6449  51.8725  17.6921   Oco2      1 RES1   0.0000
  2225 O15     12.6449  46.2189   9.0601   Oco2      1 RES1   0.0000
  2226 O16     14.1073  51.8725   9.0601   Oco2      1 RES1   0.0000
  2227 O17     17.6921  49.7769  10.5493   Oco2      1 RES1   0.0000
  2228 O18     17.6921  48.3145  16.2029   Oco2      1 RES1   0.0000
  2229 O19      9.0601  48.3145  10.5493   Oco2      1 RES1   0.0000
  2230 O20      9.0601  49.7769  16.2029   Oco2      1 RES1   0.0000
  2231 O21     10.5493  53.3617  14.1073   Oco2      1 RES1   0.0000
  2232 O22     16.2029  53.3617  12.6449   Oco2      1 RES1   0.0000
  2233 O23     10.5493  44.7297  12.6449   Oco2      1 RES1   0.0000
  2234 O24     16.2029  44.7297  14.1073   Oco2      1 RES1   0.0000
  2235 O25      3.3957  46.8092   0.4387   Oco2      1 RES1   0.0000
  2236 O26      5.5217  51.2822   0.4387   Oco2      1 RES1   0.0000
  2237 O27      5.5217  46.8092   8.4787   Oco2      1 RES1   0.0000
  2238 O28      3.3957  51.2822   8.4787   Oco2      1 RES1   0.0000
  2239 O29      0.4387  39.0653  11.1396   Oco2      1 RES1   0.0000
  2240 O30      0.4387  41.1913  15.6126   Oco2      1 RES1   0.0000
  2241 O31      8.4787  41.1913  11.1396   Oco2      1 RES1   0.0000
  2242 O32      8.4787  39.0653  15.6126   Oco2      1 RES1   0.0000
  2243 O33     11.1396  36.1083   3.3957   Oco2      1 RES1   0.0000
  2244 O34     15.6126  36.1083   5.5217   Oco2      1 RES1   0.0000
  2245 O35     11.1396  44.1483   5.5217   Oco2      1 RES1   0.0000
  2246 O36     15.6126  44.1483   3.3957   Oco2      1 RES1   0.0000
  2247 O37     14.4391  42.3648  17.3961   Oco2      1 RES1   0.0000
  2248 O38     12.3131  37.8918  17.3961   Oco2      1 RES1   0.0000
  2249 O39     12.3131  42.3648   9.3561   Oco2      1 RES1   0.0000
  2250 O40     14.4391  37.8918   9.3561   Oco2      1 RES1   0.0000
  2251 O41     17.3961  50.1087   6.6952   Oco2      1 RES1   0.0000
  2252 O42     17.3961  47.9827   2.2222   Oco2      1 RES1   0.0000
  2253 O43      9.3561  47.9827   6.6952   Oco2      1 RES1   0.0000
  2254 O44      9.3561  50.1087   2.2222   Oco2      1 RES1   0.0000
  2255 O45      6.6952  53.0657  14.4391   Oco2      1 RES1   0.0000
  2256 O46      2.2222  53.0657  12.3131   Oco2      1 RES1   0.0000
  2257 O47      6.6952  45.0257  12.3131   Oco2      1 RES1   0.0000
  2258 O48      2.2222  45.0257  14.4391   Oco2      1 RES1   0.0000
  2259 O49      3.3815  44.7172   2.2525   Oco2      1 RES1   0.0000
  2260 O51      5.5359  44.7172   6.6649   Oco2      1 RES1   0.0000
  2261 O53      2.2525  39.0511   9.0476   Oco2      1 RES1   0.0000
  2262 O54      2.2525  41.2055  -0.1302   Oco2      1 RES1   0.0000
  2263 O55      6.6649  41.2055   9.0476   Oco2      1 RES1   0.0000
  2264 O56      6.6649  39.0511  -0.1302   Oco2      1 RES1   0.0000
  2265 O57      9.0476  37.9221   3.3815   Oco2      1 RES1   0.0000
  2266 O58     -0.1302  37.9221   5.5359   Oco2      1 RES1   0.0000
  2267 O59      9.0476  42.3345   5.5359   Oco2      1 RES1   0.0000
  2268 O60     -0.1302  42.3345   3.3815   Oco2      1 RES1   0.0000
  2269 O61     14.4533  44.4568  15.5823   Oco2      1 RES1   0.0000
  2270 O62     12.2989  53.6346  15.5823   Oco2      1 RES1   0.0000
  2271 O63     12.2989  44.4568  11.1699   Oco2      1 RES1   0.0000
  2272 O64     14.4533  53.6346  11.1699   Oco2      1 RES1   0.0000
  2273 O65     15.5823  50.1229   8.7872   Oco2      1 RES1   0.0000
  2274 O66     15.5823  47.9685  17.9650   Oco2      1 RES1   0.0000
  2275 O67     11.1699  47.9685   8.7872   Oco2      1 RES1   0.0000
  2276 O68     11.1699  50.1229  17.9650   Oco2      1 RES1   0.0000
  2277 O69      8.7872  51.2519  14.4533   Oco2      1 RES1   0.0000
  2278 O70     17.9650  51.2519  12.2989   Oco2      1 RES1   0.0000
  2279 O71      8.7872  46.8395  12.2989   Oco2      1 RES1   0.0000
  2280 O72     17.9650  46.8395  14.4533   Oco2      1 RES1   0.0000
  2281 O73      3.7239  45.0133  16.2190   Oco2      1 RES1   0.0000
  2282 O74      5.1935  53.0781  16.2190   Oco2      1 RES1   0.0000
  2283 O75      5.1935  45.0133  10.5332   Oco2      1 RES1   0.0000
  2284 O76      3.7239  53.0781  10.5332   Oco2      1 RES1   0.0000
  2285 O77     16.2190  39.3935   9.3437   Oco2      1 RES1   0.0000
  2286 O78     16.2190  40.8631  17.4085   Oco2      1 RES1   0.0000
  2287 O79     10.5332  40.8631   9.3437   Oco2      1 RES1   0.0000
  2288 O80     10.5332  39.3935  17.4085   Oco2      1 RES1   0.0000
  2289 O81      9.3437  51.8886   3.7239   Oco2      1 RES1   0.0000
  2290 O82     17.4085  51.8886   5.1935   Oco2      1 RES1   0.0000
  2291 O83      9.3437  46.2028   5.1935   Oco2      1 RES1   0.0000
  2292 O84     17.4085  46.2028   3.7239   Oco2      1 RES1   0.0000
  2293 O85     14.1109  44.1607   1.6158   Oco2      1 RES1   0.0000
  2294 O86     12.6413  36.0959   1.6158   Oco2      1 RES1   0.0000
  2295 O87     12.6413  44.1607   7.3016   Oco2      1 RES1   0.0000
  2296 O88     14.1109  36.0959   7.3016   Oco2      1 RES1   0.0000
  2297 O89      1.6158  49.7805   8.4911   Oco2      1 RES1   0.0000
  2298 O90      1.6158  48.3109   0.4263   Oco2      1 RES1   0.0000
  2299 O91      7.3016  48.3109   8.4911   Oco2      1 RES1   0.0000
  2300 O92      7.3016  49.7805   0.4263   Oco2      1 RES1   0.0000
  2301 O95      8.4911  42.9712  12.6413   Oco2      1 RES1   0.0000
  2302 O96      0.4263  42.9712  14.1109   Oco2      1 RES1   0.0000
  2303 C1       2.8607  47.9596   0.4280   C.2       1 RES1   0.0000
  2304 C2       6.0567  50.1318   0.4280   C.2       1 RES1   0.0000
  2305 C3       6.0567  47.9596   8.4894   C.2       1 RES1   0.0000
  2306 C4       2.8607  50.1318   8.4894   C.2       1 RES1   0.0000
  2307 C5       0.4280  38.5303  12.2900   C.2       1 RES1   0.0000
  2308 C6       0.4280  41.7263  14.4622   C.2       1 RES1   0.0000
  2309 C7       8.4894  41.7263  12.2900   C.2       1 RES1   0.0000
  2310 C8       8.4894  38.5303  14.4622   C.2       1 RES1   0.0000
  2311 C9      12.2900  36.0976   2.8607   C.2       1 RES1   0.0000
  2312 C10     14.4622  36.0976   6.0567   C.2       1 RES1   0.0000
  2313 C11     12.2900  44.1590   6.0567   C.2       1 RES1   0.0000
  2314 C12     14.4622  44.1590   2.8607   C.2       1 RES1   0.0000
  2315 C13     14.9741  41.2144  17.4068   C.2       1 RES1   0.0000
  2316 C14     11.7781  39.0422  17.4068   C.2       1 RES1   0.0000
  2317 C15     11.7781  41.2144   9.3454   C.2       1 RES1   0.0000
  2318 C16     14.9741  39.0422   9.3454   C.2       1 RES1   0.0000
  2319 C17     17.4068  50.6437   5.5448   C.2       1 RES1   0.0000
  2320 C18     17.4068  47.4477   3.3726   C.2       1 RES1   0.0000
  2321 C19      9.3454  47.4477   5.5448   C.2       1 RES1   0.0000
  2322 C20      9.3454  50.6437   3.3726   C.2       1 RES1   0.0000
  2323 C21      5.5448  53.0764  14.9741   C.2       1 RES1   0.0000
  2324 C22      3.3726  53.0764  11.7781   C.2       1 RES1   0.0000
  2325 C23      5.5448  45.0150  11.7781   C.2       1 RES1   0.0000
  2326 C24      3.3726  45.0150  14.9741   C.2       1 RES1   0.0000
  2327 C25      3.8202  49.1438   0.4334   C.2       1 RES1   0.0000
  2328 C26      5.0972  48.9476   0.4334   C.2       1 RES1   0.0000
  2329 C27      5.0972  49.1438   8.4840   C.2       1 RES1   0.0000
  2330 C28      3.8202  48.9476   8.4840   C.2       1 RES1   0.0000
  2331 C29      0.4334  39.4898  13.4742   C.2       1 RES1   0.0000
  2332 C30      0.4334  40.7668  13.2780   C.2       1 RES1   0.0000
  2333 C31      8.4840  40.7668  13.4742   C.2       1 RES1   0.0000
  2334 C32      8.4840  39.4898  13.2780   C.2       1 RES1   0.0000
  2335 C33     13.4742  36.1030   3.8202   C.2       1 RES1   0.0000
  2336 C34     13.2780  36.1030   5.0972   C.2       1 RES1   0.0000
  2337 C35     13.4742  44.1536   5.0972   C.2       1 RES1   0.0000
  2338 C36     13.2780  44.1536   3.8202   C.2       1 RES1   0.0000
  2339 C37     14.0146  40.0302  17.4014   C.2       1 RES1   0.0000
  2340 C38     12.7376  40.2264  17.4014   C.2       1 RES1   0.0000
  2341 C39     12.7376  40.0302   9.3508   C.2       1 RES1   0.0000
  2342 C40     14.0146  40.2264   9.3508   C.2       1 RES1   0.0000
  2343 C41     17.4014  49.6842   4.3606   C.2       1 RES1   0.0000
  2344 C42     17.4014  48.4072   4.5568   C.2       1 RES1   0.0000
  2345 C43      9.3508  48.4072   4.3606   C.2       1 RES1   0.0000
  2346 C44      9.3508  49.6842   4.5568   C.2       1 RES1   0.0000
  2347 C45      4.3606  53.0710  14.0146   C.2       1 RES1   0.0000
  2348 C46      4.5568  53.0710  12.7376   C.2       1 RES1   0.0000
  2349 C47      4.3606  45.0204  12.7376   C.2       1 RES1   0.0000
  2350 C48      4.5568  45.0204  14.0146   C.2       1 RES1   0.0000
  2351 H1       3.4867  50.0123   0.4352   H         1 RES1   0.0000
  2352 H2       5.4307  48.0791   0.4352   H         1 RES1   0.0000
  2353 H3       5.4307  50.0123   8.4822   H         1 RES1   0.0000
  2354 H4       3.4867  48.0791   8.4822   H         1 RES1   0.0000
  2355 H5       0.4352  39.1563  14.3427   H         1 RES1   0.0000
  2356 H6       0.4352  41.1003  12.4095   H         1 RES1   0.0000
  2357 H7       8.4822  41.1003  14.3427   H         1 RES1   0.0000
  2358 H8       8.4822  39.1563  12.4095   H         1 RES1   0.0000
  2359 H9      14.3427  36.1048   3.4867   H         1 RES1   0.0000
  2360 H10     12.4095  36.1048   5.4307   H         1 RES1   0.0000
  2361 H11     14.3427  44.1518   5.4307   H         1 RES1   0.0000
  2362 H12     12.4095  44.1518   3.4867   H         1 RES1   0.0000
  2363 H13     14.3481  39.1617  17.3996   H         1 RES1   0.0000
  2364 H14     12.4041  41.0949  17.3996   H         1 RES1   0.0000
  2365 H15     12.4041  39.1617   9.3526   H         1 RES1   0.0000
  2366 H16     14.3481  41.0949   9.3526   H         1 RES1   0.0000
  2367 H17     17.3996  50.0177   3.4921   H         1 RES1   0.0000
  2368 H18     17.3996  48.0737   5.4253   H         1 RES1   0.0000
  2369 H19      9.3526  48.0737   3.4921   H         1 RES1   0.0000
  2370 H20      9.3526  50.0177   5.4253   H         1 RES1   0.0000
  2371 H21      3.4921  53.0692  14.3481   H         1 RES1   0.0000
  2372 H22      5.4253  53.0692  12.4041   H         1 RES1   0.0000
  2373 H23      3.4921  45.0222  12.4041   H         1 RES1   0.0000
  2374 H24      5.4253  45.0222  14.3481   H         1 RES1   0.0000
  2375 C49      3.3993  41.7299   0.0000   C.2       1 RES1   0.0000
  2376 C50      5.5181  38.5267   0.0000   C.2       1 RES1   0.0000
  2377 C51      5.5181  41.7299   8.9174   C.2       1 RES1   0.0000
  2378 C52      3.3993  38.5267   8.9174   C.2       1 RES1   0.0000
  2379 C53      0.0000  39.0689   6.0603   C.2       1 RES1   0.0000
  2380 C54      0.0000  41.1877   2.8571   C.2       1 RES1   0.0000
  2381 C55      8.9174  41.1877   6.0603   C.2       1 RES1   0.0000
  2382 C56      8.9174  39.0689   2.8571   C.2       1 RES1   0.0000
  2383 C57      6.0603  35.6696   3.3993   C.2       1 RES1   0.0000
  2384 C58      2.8571  35.6696   5.5181   C.2       1 RES1   0.0000
  2385 C59      6.0603  44.5870   5.5181   C.2       1 RES1   0.0000
  2386 C60      2.8571  44.5870   3.3993   C.2       1 RES1   0.0000
  2387 C61     14.4355  47.4441  17.8348   C.2       1 RES1   0.0000
  2388 C62     12.3167  50.6473  17.8348   C.2       1 RES1   0.0000
  2389 C63     12.3167  47.4441   8.9174   C.2       1 RES1   0.0000
  2390 C64     14.4355  50.6473   8.9174   C.2       1 RES1   0.0000
  2391 C65     17.8348  50.1051  11.7745   C.2       1 RES1   0.0000
  2392 C66     17.8348  47.9863  14.9777   C.2       1 RES1   0.0000
  2393 C67      8.9174  47.9863  11.7745   C.2       1 RES1   0.0000
  2394 C68      8.9174  50.1051  14.9777   C.2       1 RES1   0.0000
  2395 C69     11.7745  53.5044  14.4355   C.2       1 RES1   0.0000
  2396 C70     14.9777  53.5044  12.3167   C.2       1 RES1   0.0000
  2397 C71     11.7745  44.5870  12.3167   C.2       1 RES1   0.0000
  2398 C72     14.9777  44.5870  14.4355   C.2       1 RES1   0.0000
  2399 C73      4.5782  40.7793   0.0018   C.2       1 RES1   0.0000
  2400 C74      4.3392  39.4773   0.0018   C.2       1 RES1   0.0000
  2401 C75      4.3392  40.7793   8.9156   C.2       1 RES1   0.0000
  2402 C76      4.5782  39.4773   8.9156   C.2       1 RES1   0.0000
  2403 C77      0.0018  40.2478   5.1097   C.2       1 RES1   0.0000
  2404 C78      0.0018  40.0088   3.8077   C.2       1 RES1   0.0000
  2405 C79      8.9156  40.0088   5.1097   C.2       1 RES1   0.0000
  2406 C80      8.9156  40.2478   3.8077   C.2       1 RES1   0.0000
  2407 C81      5.1097  35.6714   4.5782   C.2       1 RES1   0.0000
  2408 C82      3.8077  35.6714   4.3392   C.2       1 RES1   0.0000
  2409 C83      5.1097  44.5852   4.3392   C.2       1 RES1   0.0000
  2410 C84      3.8077  44.5852   4.5782   C.2       1 RES1   0.0000
  2411 C85     13.2566  48.3947  17.8330   C.2       1 RES1   0.0000
  2412 C86     13.4956  49.6967  17.8330   C.2       1 RES1   0.0000
  2413 C87     13.4956  48.3947   8.9192   C.2       1 RES1   0.0000
  2414 C88     13.2566  49.6967   8.9192   C.2       1 RES1   0.0000
  2415 C89     17.8330  48.9262  12.7251   C.2       1 RES1   0.0000
  2416 C90     17.8330  49.1652  14.0271   C.2       1 RES1   0.0000
  2417 C91      8.9192  49.1652  12.7251   C.2       1 RES1   0.0000
  2418 C92      8.9192  48.9262  14.0271   C.2       1 RES1   0.0000
  2419 C93     12.7251  53.5026  13.2566   C.2       1 RES1   0.0000
  2420 C94     14.0271  53.5026  13.4956   C.2       1 RES1   0.0000
  2421 C95     12.7251  44.5888  13.4956   C.2       1 RES1   0.0000
  2422 C96     14.0271  44.5888  13.2566   C.2       1 RES1   0.0000
  2423 H25      5.4503  41.1021   0.0018   H         1 RES1   0.0000
  2424 H26      3.4671  39.1545   0.0018   H         1 RES1   0.0000
  2425 H27      3.4671  41.1021   8.9156   H         1 RES1   0.0000
  2426 H28      5.4503  39.1545   8.9156   H         1 RES1   0.0000
  2427 H29      0.0018  41.1199   5.4325   H         1 RES1   0.0000
  2428 H30      0.0018  39.1367   3.4849   H         1 RES1   0.0000
  2429 H31      8.9156  39.1367   5.4325   H         1 RES1   0.0000
  2430 H32      8.9156  41.1199   3.4849   H         1 RES1   0.0000
  2431 H33      5.4325  35.6714   5.4503   H         1 RES1   0.0000
  2432 H34      3.4849  35.6714   3.4671   H         1 RES1   0.0000
  2433 H35      5.4325  44.5852   3.4671   H         1 RES1   0.0000
  2434 H36      3.4849  44.5852   5.4503   H         1 RES1   0.0000
  2435 H37     12.3845  48.0719  17.8330   H         1 RES1   0.0000
  2436 H38     14.3677  50.0195  17.8330   H         1 RES1   0.0000
  2437 H39     14.3677  48.0719   8.9192   H         1 RES1   0.0000
  2438 H40     12.3845  50.0195   8.9192   H         1 RES1   0.0000
  2439 H41     17.8330  48.0541  12.4023   H         1 RES1   0.0000
  2440 H42     17.8330  50.0373  14.3499   H         1 RES1   0.0000
  2441 H43      8.9192  50.0373  12.4023   H         1 RES1   0.0000
  2442 H44      8.9192  48.0541  14.3499   H         1 RES1   0.0000
  2443 H45     12.4023  53.5026  12.3845   H         1 RES1   0.0000
  2444 H46     14.3499  53.5026  14.3677   H         1 RES1   0.0000
  2445 H47     12.4023  44.5888  14.3677   H         1 RES1   0.0000
  2446 H48     14.3499  44.5888  12.3845   H         1 RES1   0.0000
  2447 O97      1.3644  46.2225  16.6809   O3        1 RES1   0.0000
  2448 O98      7.5530  51.8689  16.6809   O3        1 RES1   0.0000
  2449 O99      7.5530  46.2225  10.0713   O3        1 RES1   0.0000
  2450 O100     1.3644  51.8689  10.0713   O3        1 RES1   0.0000
  2451 O101    16.6809  37.0340  10.5529   O3        1 RES1   0.0000
  2452 O102    16.6809  43.2226  16.1993   O3        1 RES1   0.0000
  2453 O103    10.0713  43.2226  10.5529   O3        1 RES1   0.0000
  2454 O105    10.5529  52.3505   1.3644   O3        1 RES1   0.0000
  2455 O106    16.1993  52.3505   7.5530   O3        1 RES1   0.0000
  2456 O107    10.5529  45.7409   7.5530   O3        1 RES1   0.0000
  2457 O108    16.1993  45.7409   1.3644   O3        1 RES1   0.0000
  2458 O109    16.4704  42.9515   1.1539   O3        1 RES1   0.0000
  2459 O110    10.2818  37.3051   1.1539   O3        1 RES1   0.0000
  2460 O111    10.2818  42.9515   7.7635   O3        1 RES1   0.0000
  2461 O112    16.4704  37.3051   7.7635   O3        1 RES1   0.0000
  2462 O113     1.1539  52.1400   7.2819   O3        1 RES1   0.0000
  2463 O114     1.1539  45.9514   1.6355   O3        1 RES1   0.0000
  2464 O115     7.7635  45.9514   7.2819   O3        1 RES1   0.0000
  2465 O116     7.7635  52.1400   1.6355   O3        1 RES1   0.0000
  2466 O119     7.2819  43.4331  10.2818   O3        1 RES1   0.0000
  2467 O153     1.4000  43.1870   1.4000   O3        1 RES1   0.0000
  2468 O155     7.5174  43.1870   7.5174   O3        1 RES1   0.0000
  2469 O157    16.4348  45.9870  16.4348   O3        1 RES1   0.0000
  2470 O158    10.3174  52.1044  16.4348   O3        1 RES1   0.0000
  2471 O159    10.3174  45.9870  10.3174   O3        1 RES1   0.0000
  2472 O160    16.4348  52.1044  10.3174   O3        1 RES1   0.0000
  2473 Zr1      2.4585  44.7855  18.0467   Zr        1 RES1   0.0000
  2474 Zr1     20.2933  44.7855   0.2119   Zr        1 RES1   0.0000
  2475 Zr2      6.4589  53.3059  18.0467   Zr        1 RES1   0.0000
  2476 Zr4     20.2933  53.3059   8.7055   Zr        1 RES1   0.0000
  2477 Zr5      0.2119  55.9629   9.1159   Zr        1 RES1   0.0000
  2478 Zr5     18.0467  38.1281   9.1159   Zr        1 RES1   0.0000
  2479 Zr6      0.2119  42.1285  -0.1985   Zr        1 RES1   0.0000
  2480 Zr6     18.0467  42.1285  -0.1985   Zr        1 RES1   0.0000
  2481 Zr6     18.0467  42.1285  17.6363   Zr        1 RES1   0.0000
  2482 Zr8      8.7055  55.9629  -0.1985   Zr        1 RES1   0.0000
  2483 Zr8      8.7055  55.9629  17.6363   Zr        1 RES1   0.0000
  2484 Zr9      9.1159  53.7163   2.4585   Zr        1 RES1   0.0000
  2485 Zr10    -0.1985  53.7163   6.4589   Zr        1 RES1   0.0000
  2486 Zr10    17.6363  53.7163   6.4589   Zr        1 RES1   0.0000
  2487 Zr12    -0.1985  44.3751   2.4585   Zr        1 RES1   0.0000
  2488 Zr12    -0.1985  44.3751  20.2933   Zr        1 RES1   0.0000
  2489 Zr12    17.6363  44.3751  20.2933   Zr        1 RES1   0.0000
  2490 Zr13    -2.4585  44.3885  17.6229   Zr        1 RES1   0.0000
  2491 Zr13    15.3763  44.3885  -0.2119   Zr        1 RES1   0.0000
  2492 Zr14    11.3759  53.7029  -0.2119   Zr        1 RES1   0.0000
  2493 Zr14    11.3759  53.7029  17.6229   Zr        1 RES1   0.0000
  2494 Zr16    -2.4585  53.7029   9.1293   Zr        1 RES1   0.0000
  2495 Zr16    15.3763  53.7029   9.1293   Zr        1 RES1   0.0000
  2496 Zr17    -0.2119  51.0459   8.7189   Zr        1 RES1   0.0000
  2497 Zr18    -0.2119  47.0455   0.1985   Zr        1 RES1   0.0000
  2498 Zr18    -0.2119  47.0455  18.0333   Zr        1 RES1   0.0000
  2499 Zr18    17.6229  47.0455  18.0333   Zr        1 RES1   0.0000
  2500 Zr20     9.1293  51.0459  18.0333   Zr        1 RES1   0.0000
  2501 Zr21     8.7189  53.2925  -2.4585   Zr        1 RES1   0.0000
  2502 Zr22    18.0333  53.2925  11.3759   Zr        1 RES1   0.0000
  2503 Zr24     0.1985  44.7989  -2.4585   Zr        1 RES1   0.0000
  2504 Zr24    18.0333  44.7989  -2.4585   Zr        1 RES1   0.0000
  2505 Zr24    18.0333  44.7989  15.3763   Zr        1 RES1   0.0000
  2506 O2       5.1899  55.1363   0.1427   O.2       1 RES1   0.0000
  2507 O4       3.7275  55.1363   8.7747   O.2       1 RES1   0.0000
  2508 O6       0.1427  40.8595  19.4667   Oco2      1 RES1   0.0000
  2509 O8       8.7747  39.3971  19.4667   Oco2      1 RES1   0.0000
  2510 O10     19.4667  35.8123   5.1899   Oco2      1 RES1   0.0000
  2511 O12     19.4667  44.4443   3.7275   Oco2      1 RES1   0.0000
  2512 O18     17.6921  48.3145  -1.6319   O.2       1 RES1   0.0000
  2513 O20      9.0601  49.7769  -1.6319   O.2       1 RES1   0.0000
  2514 O22     -1.6319  53.3617  12.6449   O.2       1 RES1   0.0000
  2515 O24     -1.6319  44.7297  14.1073   O.2       1 RES1   0.0000
  2516 O50      5.5359  53.3742   2.2525   O.2       1 RES1   0.0000
  2517 O52      3.3815  53.3742   6.6649   O.2       1 RES1   0.0000
  2518 O54      2.2525  41.2055  17.7046   Oco2      1 RES1   0.0000
  2519 O56      6.6649  39.0511  17.7046   Oco2      1 RES1   0.0000
  2520 O58     17.7046  37.9221   5.5359   Oco2      1 RES1   0.0000
  2521 O60     17.7046  42.3345   3.3815   Oco2      1 RES1   0.0000
  2522 O66     15.5823  47.9685   0.1302   O.2       1 RES1   0.0000
  2523 O68     11.1699  50.1229   0.1302   O.2       1 RES1   0.0000
  2524 O70      0.1302  51.2519  12.2989   O.2       1 RES1   0.0000
  2525 O72      0.1302  46.8395  14.4533   O.2       1 RES1   0.0000
  2526 O73      3.7239  45.0133  -1.6158   O.2       1 RES1   0.0000
  2527 O74      5.1935  53.0781  -1.6158   O.2       1 RES1   0.0000
  2528 O77     -1.6158  39.3935   9.3437   O.2       1 RES1   0.0000
  2529 O78     -1.6158  40.8631  17.4085   O.2       1 RES1   0.0000
  2530 O85     14.1109  44.1607  19.4506   Oco2      1 RES1   0.0000
  2531 O86     12.6413  36.0959  19.4506   Oco2      1 RES1   0.0000
  2532 O89     19.4506  49.7805   8.4911   Oco2      1 RES1   0.0000
  2533 O90     19.4506  48.3109   0.4263   Oco2      1 RES1   0.0000
  2534 O93      8.4911  55.1202  14.1109   O.2       1 RES1   0.0000
  2535 O94      0.4263  55.1202  12.6413   O.2       1 RES1   0.0000
  2536 O97      1.3644  46.2225  -1.1539   O3        1 RES1   0.0000
  2537 O97     19.1992  46.2225  -1.1539   O3        1 RES1   0.0000
  2538 O98      7.5530  51.8689  -1.1539   O3        1 RES1   0.0000
  2539 O100    19.1992  51.8689  10.0713   O3        1 RES1   0.0000
  2540 O101    -1.1539  54.8688  10.5529   O3        1 RES1   0.0000
  2541 O102    -1.1539  43.2226  16.1993   O3        1 RES1   0.0000
  2542 O104    10.0713  54.8688  16.1993   O3        1 RES1   0.0000
  2543 O108    16.1993  45.7409  19.1992   O3        1 RES1   0.0000
  2544 O109    -1.3644  42.9515  18.9887   O3        1 RES1   0.0000
  2545 O109    16.4704  42.9515  18.9887   O3        1 RES1   0.0000
  2546 O110    10.2818  37.3051  18.9887   O3        1 RES1   0.0000
  2547 O112    -1.3644  37.3051   7.7635   O3        1 RES1   0.0000
  2548 O113    18.9887  52.1400   7.2819   O3        1 RES1   0.0000
  2549 O114    18.9887  45.9514   1.6355   O3        1 RES1   0.0000
  2550 O117     7.2819  54.6583  -1.3644   O3        1 RES1   0.0000
  2551 O117     7.2819  54.6583  16.4704   O3        1 RES1   0.0000
  2552 O118     1.6355  54.6583  10.2818   O3        1 RES1   0.0000
  2553 O120     1.6355  43.4331  -1.3644   O3        1 RES1   0.0000
  2554 O153     1.4000  43.1870  19.2348   O3        1 RES1   0.0000
  2555 O153    19.2348  43.1870   1.4000   O3        1 RES1   0.0000
  2556 O154     7.5174  54.9044   1.4000   O3        1 RES1   0.0000
  2557 O156     1.4000  54.9044   7.5174   O3        1 RES1   0.0000
  2558 O156    19.2348  37.0696   7.5174   O3        1 RES1   0.0000
  2559 O157    -1.4000  45.9870  16.4348   O3        1 RES1   0.0000
  2560 O157    16.4348  45.9870  -1.4000   O3        1 RES1   0.0000
  2561 O158    10.3174  52.1044  -1.4000   O3        1 RES1   0.0000
  2562 O160    -1.4000  52.1044  10.3174   O3        1 RES1   0.0000
  2563 Zr3      6.4589  44.7855  26.5403   Zr        1 RES1   0.0000
  2564 Zr4      2.4585  53.3059  26.5403   Zr        1 RES1   0.0000
  2565 Zr6      0.2119  42.1285  35.4711   Zr        1 RES1   0.0000
  2566 Zr7      8.7055  42.1285  26.9507   Zr        1 RES1   0.0000
  2567 Zr11     9.1159  44.3751  24.2937   Zr        1 RES1   0.0000
  2568 Zr13    15.3763  44.3885  35.4577   Zr        1 RES1   0.0000
  2569 Zr15    11.3759  44.3885  26.9641   Zr        1 RES1   0.0000
  2570 Zr17    17.6229  51.0459  26.5537   Zr        1 RES1   0.0000
  2571 Zr19     9.1293  47.0455  26.5537   Zr        1 RES1   0.0000
  2572 Zr21     8.7189  53.2925  33.2111   Zr        1 RES1   0.0000
  2573 Zr22     0.1985  53.2925  29.2107   Zr        1 RES1   0.0000
  2574 Zr23     8.7189  44.7989  29.2107   Zr        1 RES1   0.0000
  2575 Zr24     0.1985  44.7989  33.2111   Zr        1 RES1   0.0000
  2576 O1       3.7275  42.9551  17.9775   Oco2      1 RES1   0.0000
  2577 O3       5.1899  42.9551  26.6095   Oco2      1 RES1   0.0000
  2578 O5       0.1427  39.3971  25.1203   Oco2      1 RES1   0.0000
  2579 O7       8.7747  40.8595  25.1203   Oco2      1 RES1   0.0000
  2580 O9       7.2855  35.8123  21.5623   Oco2      1 RES1   0.0000
  2581 O10      1.6319  35.8123  23.0247   Oco2      1 RES1   0.0000
  2582 O11      7.2855  44.4443  23.0247   Oco2      1 RES1   0.0000
  2583 O12      1.6319  44.4443  21.5623   Oco2      1 RES1   0.0000
  2584 O13     14.1073  46.2189  35.5269   Oco2      1 RES1   0.0000
  2585 O14     12.6449  51.8725  35.5269   Oco2      1 RES1   0.0000
  2586 O15     12.6449  46.2189  26.8949   Oco2      1 RES1   0.0000
  2587 O16     14.1073  51.8725  26.8949   Oco2      1 RES1   0.0000
  2588 O17     17.6921  49.7769  28.3841   Oco2      1 RES1   0.0000
  2589 O18     17.6921  48.3145  34.0377   Oco2      1 RES1   0.0000
  2590 O19      9.0601  48.3145  28.3841   Oco2      1 RES1   0.0000
  2591 O20      9.0601  49.7769  34.0377   Oco2      1 RES1   0.0000
  2592 O21     10.5493  53.3617  31.9421   Oco2      1 RES1   0.0000
  2593 O22     16.2029  53.3617  30.4797   Oco2      1 RES1   0.0000
  2594 O23     10.5493  44.7297  30.4797   Oco2      1 RES1   0.0000
  2595 O24     16.2029  44.7297  31.9421   Oco2      1 RES1   0.0000
  2596 O25      3.3957  46.8092  18.2735   Oco2      1 RES1   0.0000
  2597 O26      5.5217  51.2822  18.2735   Oco2      1 RES1   0.0000
  2598 O27      5.5217  46.8092  26.3135   Oco2      1 RES1   0.0000
  2599 O28      3.3957  51.2822  26.3135   Oco2      1 RES1   0.0000
  2600 O29      0.4387  39.0653  28.9744   Oco2      1 RES1   0.0000
  2601 O30      0.4387  41.1913  33.4474   Oco2      1 RES1   0.0000
  2602 O31      8.4787  41.1913  28.9744   Oco2      1 RES1   0.0000
  2603 O32      8.4787  39.0653  33.4474   Oco2      1 RES1   0.0000
  2604 O33     11.1396  36.1083  21.2305   Oco2      1 RES1   0.0000
  2605 O34     15.6126  36.1083  23.3565   Oco2      1 RES1   0.0000
  2606 O35     11.1396  44.1483  23.3565   Oco2      1 RES1   0.0000
  2607 O36     15.6126  44.1483  21.2305   Oco2      1 RES1   0.0000
  2608 O37     14.4391  42.3648  35.2309   Oco2      1 RES1   0.0000
  2609 O38     12.3131  37.8918  35.2309   Oco2      1 RES1   0.0000
  2610 O39     12.3131  42.3648  27.1909   Oco2      1 RES1   0.0000
  2611 O40     14.4391  37.8918  27.1909   Oco2      1 RES1   0.0000
  2612 O41     17.3961  50.1087  24.5300   Oco2      1 RES1   0.0000
  2613 O42     17.3961  47.9827  20.0570   Oco2      1 RES1   0.0000
  2614 O43      9.3561  47.9827  24.5300   Oco2      1 RES1   0.0000
  2615 O44      9.3561  50.1087  20.0570   Oco2      1 RES1   0.0000
  2616 O45      6.6952  53.0657  32.2739   Oco2      1 RES1   0.0000
  2617 O46      2.2222  53.0657  30.1479   Oco2      1 RES1   0.0000
  2618 O47      6.6952  45.0257  30.1479   Oco2      1 RES1   0.0000
  2619 O48      2.2222  45.0257  32.2739   Oco2      1 RES1   0.0000
  2620 O49      3.3815  44.7172  20.0873   Oco2      1 RES1   0.0000
  2621 O51      5.5359  44.7172  24.4997   Oco2      1 RES1   0.0000
  2622 O53      2.2525  39.0511  26.8824   Oco2      1 RES1   0.0000
  2623 O55      6.6649  41.2055  26.8824   Oco2      1 RES1   0.0000
  2624 O57      9.0476  37.9221  21.2163   Oco2      1 RES1   0.0000
  2625 O58     -0.1302  37.9221  23.3707   Oco2      1 RES1   0.0000
  2626 O59      9.0476  42.3345  23.3707   Oco2      1 RES1   0.0000
  2627 O60     -0.1302  42.3345  21.2163   Oco2      1 RES1   0.0000
  2628 O61     14.4533  44.4568  33.4171   Oco2      1 RES1   0.0000
  2629 O62     12.2989  53.6346  33.4171   Oco2      1 RES1   0.0000
  2630 O63     12.2989  44.4568  29.0047   Oco2      1 RES1   0.0000
  2631 O64     14.4533  53.6346  29.0047   Oco2      1 RES1   0.0000
  2632 O65     15.5823  50.1229  26.6220   Oco2      1 RES1   0.0000
  2633 O66     15.5823  47.9685  35.7998   Oco2      1 RES1   0.0000
  2634 O67     11.1699  47.9685  26.6220   Oco2      1 RES1   0.0000
  2635 O68     11.1699  50.1229  35.7998   Oco2      1 RES1   0.0000
  2636 O69      8.7872  51.2519  32.2881   Oco2      1 RES1   0.0000
  2637 O70     17.9650  51.2519  30.1337   Oco2      1 RES1   0.0000
  2638 O71      8.7872  46.8395  30.1337   Oco2      1 RES1   0.0000
  2639 O72     17.9650  46.8395  32.2881   Oco2      1 RES1   0.0000
  2640 O73      3.7239  45.0133  34.0538   Oco2      1 RES1   0.0000
  2641 O74      5.1935  53.0781  34.0538   Oco2      1 RES1   0.0000
  2642 O75      5.1935  45.0133  28.3680   Oco2      1 RES1   0.0000
  2643 O76      3.7239  53.0781  28.3680   Oco2      1 RES1   0.0000
  2644 O77     16.2190  39.3935  27.1785   Oco2      1 RES1   0.0000
  2645 O78     16.2190  40.8631  35.2433   Oco2      1 RES1   0.0000
  2646 O79     10.5332  40.8631  27.1785   Oco2      1 RES1   0.0000
  2647 O80     10.5332  39.3935  35.2433   Oco2      1 RES1   0.0000
  2648 O81      9.3437  51.8886  21.5587   Oco2      1 RES1   0.0000
  2649 O82     17.4085  51.8886  23.0283   Oco2      1 RES1   0.0000
  2650 O83      9.3437  46.2028  23.0283   Oco2      1 RES1   0.0000
  2651 O84     17.4085  46.2028  21.5587   Oco2      1 RES1   0.0000
  2652 O87     12.6413  44.1607  25.1364   Oco2      1 RES1   0.0000
  2653 O88     14.1109  36.0959  25.1364   Oco2      1 RES1   0.0000
  2654 O89      1.6158  49.7805  26.3259   Oco2      1 RES1   0.0000
  2655 O90      1.6158  48.3109  18.2611   Oco2      1 RES1   0.0000
  2656 O91      7.3016  48.3109  26.3259   Oco2      1 RES1   0.0000
  2657 O92      7.3016  49.7805  18.2611   Oco2      1 RES1   0.0000
  2658 O95      8.4911  42.9712  30.4761   Oco2      1 RES1   0.0000
  2659 O96      0.4263  42.9712  31.9457   Oco2      1 RES1   0.0000
  2660 C1       2.8607  47.9596  18.2628   C.2       1 RES1   0.0000
  2661 C2       6.0567  50.1318  18.2628   C.2       1 RES1   0.0000
  2662 C3       6.0567  47.9596  26.3242   C.2       1 RES1   0.0000
  2663 C4       2.8607  50.1318  26.3242   C.2       1 RES1   0.0000
  2664 C5       0.4280  38.5303  30.1248   C.2       1 RES1   0.0000
  2665 C6       0.4280  41.7263  32.2970   C.2       1 RES1   0.0000
  2666 C7       8.4894  41.7263  30.1248   C.2       1 RES1   0.0000
  2667 C8       8.4894  38.5303  32.2970   C.2       1 RES1   0.0000
  2668 C9      12.2900  36.0976  20.6955   C.2       1 RES1   0.0000
  2669 C10     14.4622  36.0976  23.8915   C.2       1 RES1   0.0000
  2670 C11     12.2900  44.1590  23.8915   C.2       1 RES1   0.0000
  2671 C12     14.4622  44.1590  20.6955   C.2       1 RES1   0.0000
  2672 C13     14.9741  41.2144  35.2416   C.2       1 RES1   0.0000
  2673 C14     11.7781  39.0422  35.2416   C.2       1 RES1   0.0000
  2674 C15     11.7781  41.2144  27.1802   C.2       1 RES1   0.0000
  2675 C16     14.9741  39.0422  27.1802   C.2       1 RES1   0.0000
  2676 C17     17.4068  50.6437  23.3796   C.2       1 RES1   0.0000
  2677 C18     17.4068  47.4477  21.2074   C.2       1 RES1   0.0000
  2678 C19      9.3454  47.4477  23.3796   C.2       1 RES1   0.0000
  2679 C20      9.3454  50.6437  21.2074   C.2       1 RES1   0.0000
  2680 C21      5.5448  53.0764  32.8089   C.2       1 RES1   0.0000
  2681 C22      3.3726  53.0764  29.6129   C.2       1 RES1   0.0000
  2682 C23      5.5448  45.0150  29.6129   C.2       1 RES1   0.0000
  2683 C24      3.3726  45.0150  32.8089   C.2       1 RES1   0.0000
  2684 C25      3.8202  49.1438  18.2682   C.2       1 RES1   0.0000
  2685 C26      5.0972  48.9476  18.2682   C.2       1 RES1   0.0000
  2686 C27      5.0972  49.1438  26.3188   C.2       1 RES1   0.0000
  2687 C28      3.8202  48.9476  26.3188   C.2       1 RES1   0.0000
  2688 C29      0.4334  39.4898  31.3090   C.2       1 RES1   0.0000
  2689 C30      0.4334  40.7668  31.1128   C.2       1 RES1   0.0000
  2690 C31      8.4840  40.7668  31.3090   C.2       1 RES1   0.0000
  2691 C32      8.4840  39.4898  31.1128   C.2       1 RES1   0.0000
  2692 C33     13.4742  36.1030  21.6550   C.2       1 RES1   0.0000
  2693 C34     13.2780  36.1030  22.9320   C.2       1 RES1   0.0000
  2694 C35     13.4742  44.1536  22.9320   C.2       1 RES1   0.0000
  2695 C36     13.2780  44.1536  21.6550   C.2       1 RES1   0.0000
  2696 C37     14.0146  40.0302  35.2362   C.2       1 RES1   0.0000
  2697 C38     12.7376  40.2264  35.2362   C.2       1 RES1   0.0000
  2698 C39     12.7376  40.0302  27.1856   C.2       1 RES1   0.0000
  2699 C40     14.0146  40.2264  27.1856   C.2       1 RES1   0.0000
  2700 C41     17.4014  49.6842  22.1954   C.2       1 RES1   0.0000
  2701 C42     17.4014  48.4072  22.3916   C.2       1 RES1   0.0000
  2702 C43      9.3508  48.4072  22.1954   C.2       1 RES1   0.0000
  2703 C44      9.3508  49.6842  22.3916   C.2       1 RES1   0.0000
  2704 C45      4.3606  53.0710  31.8494   C.2       1 RES1   0.0000
  2705 C46      4.5568  53.0710  30.5724   C.2       1 RES1   0.0000
  2706 C47      4.3606  45.0204  30.5724   C.2       1 RES1   0.0000
  2707 C48      4.5568  45.0204  31.8494   C.2       1 RES1   0.0000
  2708 H1       3.4867  50.0123  18.2700   H         1 RES1   0.0000
  2709 H2       5.4307  48.0791  18.2700   H         1 RES1   0.0000
  2710 H3       5.4307  50.0123  26.3170   H         1 RES1   0.0000
  2711 H4       3.4867  48.0791  26.3170   H         1 RES1   0.0000
  2712 H5       0.4352  39.1563  32.1775   H         1 RES1   0.0000
  2713 H6       0.4352  41.1003  30.2443   H         1 RES1   0.0000
  2714 H7       8.4822  41.1003  32.1775   H         1 RES1   0.0000
  2715 H8       8.4822  39.1563  30.2443   H         1 RES1   0.0000
  2716 H9      14.3427  36.1048  21.3215   H         1 RES1   0.0000
  2717 H10     12.4095  36.1048  23.2655   H         1 RES1   0.0000
  2718 H11     14.3427  44.1518  23.2655   H         1 RES1   0.0000
  2719 H12     12.4095  44.1518  21.3215   H         1 RES1   0.0000
  2720 H13     14.3481  39.1617  35.2344   H         1 RES1   0.0000
  2721 H14     12.4041  41.0949  35.2344   H         1 RES1   0.0000
  2722 H15     12.4041  39.1617  27.1874   H         1 RES1   0.0000
  2723 H16     14.3481  41.0949  27.1874   H         1 RES1   0.0000
  2724 H17     17.3996  50.0177  21.3269   H         1 RES1   0.0000
  2725 H18     17.3996  48.0737  23.2601   H         1 RES1   0.0000
  2726 H19      9.3526  48.0737  21.3269   H         1 RES1   0.0000
  2727 H20      9.3526  50.0177  23.2601   H         1 RES1   0.0000
  2728 H21      3.4921  53.0692  32.1829   H         1 RES1   0.0000
  2729 H22      5.4253  53.0692  30.2389   H         1 RES1   0.0000
  2730 H23      3.4921  45.0222  30.2389   H         1 RES1   0.0000
  2731 H24      5.4253  45.0222  32.1829   H         1 RES1   0.0000
  2732 C49      3.3993  41.7299  17.8348   C.2       1 RES1   0.0000
  2733 C50      5.5181  38.5267  17.8348   C.2       1 RES1   0.0000
  2734 C51      5.5181  41.7299  26.7522   C.2       1 RES1   0.0000
  2735 C52      3.3993  38.5267  26.7522   C.2       1 RES1   0.0000
  2736 C53      0.0000  39.0689  23.8951   C.2       1 RES1   0.0000
  2737 C54      0.0000  41.1877  20.6919   C.2       1 RES1   0.0000
  2738 C55      8.9174  41.1877  23.8951   C.2       1 RES1   0.0000
  2739 C56      8.9174  39.0689  20.6919   C.2       1 RES1   0.0000
  2740 C57      6.0603  35.6696  21.2341   C.2       1 RES1   0.0000
  2741 C58      2.8571  35.6696  23.3529   C.2       1 RES1   0.0000
  2742 C59      6.0603  44.5870  23.3529   C.2       1 RES1   0.0000
  2743 C60      2.8571  44.5870  21.2341   C.2       1 RES1   0.0000
  2744 C61     14.4355  47.4441  35.6696   C.2       1 RES1   0.0000
  2745 C62     12.3167  50.6473  35.6696   C.2       1 RES1   0.0000
  2746 C63     12.3167  47.4441  26.7522   C.2       1 RES1   0.0000
  2747 C64     14.4355  50.6473  26.7522   C.2       1 RES1   0.0000
  2748 C65     17.8348  50.1051  29.6093   C.2       1 RES1   0.0000
  2749 C66     17.8348  47.9863  32.8125   C.2       1 RES1   0.0000
  2750 C67      8.9174  47.9863  29.6093   C.2       1 RES1   0.0000
  2751 C68      8.9174  50.1051  32.8125   C.2       1 RES1   0.0000
  2752 C69     11.7745  53.5044  32.2703   C.2       1 RES1   0.0000
  2753 C70     14.9777  53.5044  30.1515   C.2       1 RES1   0.0000
  2754 C71     11.7745  44.5870  30.1515   C.2       1 RES1   0.0000
  2755 C72     14.9777  44.5870  32.2703   C.2       1 RES1   0.0000
  2756 C73      4.5782  40.7793  17.8366   C.2       1 RES1   0.0000
  2757 C74      4.3392  39.4773  17.8366   C.2       1 RES1   0.0000
  2758 C75      4.3392  40.7793  26.7504   C.2       1 RES1   0.0000
  2759 C76      4.5782  39.4773  26.7504   C.2       1 RES1   0.0000
  2760 C77      0.0018  40.2478  22.9445   C.2       1 RES1   0.0000
  2761 C78      0.0018  40.0088  21.6425   C.2       1 RES1   0.0000
  2762 C79      8.9156  40.0088  22.9445   C.2       1 RES1   0.0000
  2763 C80      8.9156  40.2478  21.6425   C.2       1 RES1   0.0000
  2764 C81      5.1097  35.6714  22.4130   C.2       1 RES1   0.0000
  2765 C82      3.8077  35.6714  22.1740   C.2       1 RES1   0.0000
  2766 C83      5.1097  44.5852  22.1740   C.2       1 RES1   0.0000
  2767 C84      3.8077  44.5852  22.4130   C.2       1 RES1   0.0000
  2768 C85     13.2566  48.3947  35.6678   C.2       1 RES1   0.0000
  2769 C86     13.4956  49.6967  35.6678   C.2       1 RES1   0.0000
  2770 C87     13.4956  48.3947  26.7540   C.2       1 RES1   0.0000
  2771 C88     13.2566  49.6967  26.7540   C.2       1 RES1   0.0000
  2772 C89     17.8330  48.9262  30.5599   C.2       1 RES1   0.0000
  2773 C90     17.8330  49.1652  31.8619   C.2       1 RES1   0.0000
  2774 C91      8.9192  49.1652  30.5599   C.2       1 RES1   0.0000
  2775 C92      8.9192  48.9262  31.8619   C.2       1 RES1   0.0000
  2776 C93     12.7251  53.5026  31.0914   C.2       1 RES1   0.0000
  2777 C94     14.0271  53.5026  31.3304   C.2       1 RES1   0.0000
  2778 C95     12.7251  44.5888  31.3304   C.2       1 RES1   0.0000
  2779 C96     14.0271  44.5888  31.0914   C.2       1 RES1   0.0000
  2780 H25      5.4503  41.1021  17.8366   H         1 RES1   0.0000
  2781 H26      3.4671  39.1545  17.8366   H         1 RES1   0.0000
  2782 H27      3.4671  41.1021  26.7504   H         1 RES1   0.0000
  2783 H28      5.4503  39.1545  26.7504   H         1 RES1   0.0000
  2784 H29      0.0018  41.1199  23.2673   H         1 RES1   0.0000
  2785 H30      0.0018  39.1367  21.3197   H         1 RES1   0.0000
  2786 H31      8.9156  39.1367  23.2673   H         1 RES1   0.0000
  2787 H32      8.9156  41.1199  21.3197   H         1 RES1   0.0000
  2788 H33      5.4325  35.6714  23.2851   H         1 RES1   0.0000
  2789 H34      3.4849  35.6714  21.3019   H         1 RES1   0.0000
  2790 H35      5.4325  44.5852  21.3019   H         1 RES1   0.0000
  2791 H36      3.4849  44.5852  23.2851   H         1 RES1   0.0000
  2792 H37     12.3845  48.0719  35.6678   H         1 RES1   0.0000
  2793 H38     14.3677  50.0195  35.6678   H         1 RES1   0.0000
  2794 H39     14.3677  48.0719  26.7540   H         1 RES1   0.0000
  2795 H40     12.3845  50.0195  26.7540   H         1 RES1   0.0000
  2796 H41     17.8330  48.0541  30.2371   H         1 RES1   0.0000
  2797 H42     17.8330  50.0373  32.1847   H         1 RES1   0.0000
  2798 H43      8.9192  50.0373  30.2371   H         1 RES1   0.0000
  2799 H44      8.9192  48.0541  32.1847   H         1 RES1   0.0000
  2800 H45     12.4023  53.5026  30.2193   H         1 RES1   0.0000
  2801 H46     14.3499  53.5026  32.2025   H         1 RES1   0.0000
  2802 H47     12.4023  44.5888  32.2025   H         1 RES1   0.0000
  2803 H48     14.3499  44.5888  30.2193   H         1 RES1   0.0000
  2804 O97      1.3644  46.2225  34.5157   O3        1 RES1   0.0000
  2805 O98      7.5530  51.8689  34.5157   O3        1 RES1   0.0000
  2806 O99      7.5530  46.2225  27.9061   O3        1 RES1   0.0000
  2807 O100     1.3644  51.8689  27.9061   O3        1 RES1   0.0000
  2808 O101    16.6809  37.0340  28.3877   O3        1 RES1   0.0000
  2809 O102    16.6809  43.2226  34.0341   O3        1 RES1   0.0000
  2810 O103    10.0713  43.2226  28.3877   O3        1 RES1   0.0000
  2811 O105    10.5529  52.3505  19.1992   O3        1 RES1   0.0000
  2812 O106    16.1993  52.3505  25.3878   O3        1 RES1   0.0000
  2813 O107    10.5529  45.7409  25.3878   O3        1 RES1   0.0000
  2814 O111    10.2818  42.9515  25.5983   O3        1 RES1   0.0000
  2815 O112    16.4704  37.3051  25.5983   O3        1 RES1   0.0000
  2816 O113     1.1539  52.1400  25.1167   O3        1 RES1   0.0000
  2817 O114     1.1539  45.9514  19.4703   O3        1 RES1   0.0000
  2818 O115     7.7635  45.9514  25.1167   O3        1 RES1   0.0000
  2819 O116     7.7635  52.1400  19.4703   O3        1 RES1   0.0000
  2820 O119     7.2819  43.4331  28.1166   O3        1 RES1   0.0000
  2821 O155     7.5174  43.1870  25.3522   O3        1 RES1   0.0000
  2822 O157    16.4348  45.9870  34.2696   O3        1 RES1   0.0000
  2823 O158    10.3174  52.1044  34.2696   O3        1 RES1   0.0000
  2824 O159    10.3174  45.9870  28.1522   O3        1 RES1   0.0000
  2825 O160    16.4348  52.1044  28.1522   O3        1 RES1   0.0000
  2826 Zr1      2.4585  44.7855  35.8815   Zr        1 RES1   0.0000
  2827 Zr1     20.2933  44.7855  18.0467   Zr        1 RES1   0.0000
  2828 Zr2      6.4589  53.3059  35.8815   Zr        1 RES1   0.0000
  2829 Zr4     20.2933  53.3059  26.5403   Zr        1 RES1   0.0000
  2830 Zr5      0.2119  55.9629  26.9507   Zr        1 RES1   0.0000
  2831 Zr5     18.0467  38.1281  26.9507   Zr        1 RES1   0.0000
  2832 Zr6     18.0467  42.1285  35.4711   Zr        1 RES1   0.0000
  2833 Zr8      8.7055  55.9629  35.4711   Zr        1 RES1   0.0000
  2834 Zr9      9.1159  53.7163  20.2933   Zr        1 RES1   0.0000
  2835 Zr10    -0.1985  53.7163  24.2937   Zr        1 RES1   0.0000
  2836 Zr10    17.6363  53.7163  24.2937   Zr        1 RES1   0.0000
  2837 Zr12    -0.1985  44.3751  38.1281   Zr        1 RES1   0.0000
  2838 Zr12    17.6363  44.3751  38.1281   Zr        1 RES1   0.0000
  2839 Zr13    -2.4585  44.3885  35.4577   Zr        1 RES1   0.0000
  2840 Zr14    11.3759  53.7029  35.4577   Zr        1 RES1   0.0000
  2841 Zr16    -2.4585  53.7029  26.9641   Zr        1 RES1   0.0000
  2842 Zr16    15.3763  53.7029  26.9641   Zr        1 RES1   0.0000
  2843 Zr17    -0.2119  51.0459  26.5537   Zr        1 RES1   0.0000
  2844 Zr18    -0.2119  47.0455  35.8681   Zr        1 RES1   0.0000
  2845 Zr18    17.6229  47.0455  35.8681   Zr        1 RES1   0.0000
  2846 Zr20     9.1293  51.0459  35.8681   Zr        1 RES1   0.0000
  2847 Zr22    18.0333  53.2925  29.2107   Zr        1 RES1   0.0000
  2848 Zr24    18.0333  44.7989  33.2111   Zr        1 RES1   0.0000
  2849 O2       5.1899  55.1363  17.9775   O.2       1 RES1   0.0000
  2850 O4       3.7275  55.1363  26.6095   O.2       1 RES1   0.0000
  2851 O6       0.1427  40.8595  37.3015   Oco2      1 RES1   0.0000
  2852 O8       8.7747  39.3971  37.3015   Oco2      1 RES1   0.0000
  2853 O10     19.4667  35.8123  23.0247   Oco2      1 RES1   0.0000
  2854 O12     19.4667  44.4443  21.5623   Oco2      1 RES1   0.0000
  2855 O22     -1.6319  53.3617  30.4797   O.2       1 RES1   0.0000
  2856 O24     -1.6319  44.7297  31.9421   O.2       1 RES1   0.0000
  2857 O50      5.5359  53.3742  20.0873   O.2       1 RES1   0.0000
  2858 O52      3.3815  53.3742  24.4997   O.2       1 RES1   0.0000
  2859 O54      2.2525  41.2055  35.5394   Oco2      1 RES1   0.0000
  2860 O56      6.6649  39.0511  35.5394   Oco2      1 RES1   0.0000
  2861 O58     17.7046  37.9221  23.3707   Oco2      1 RES1   0.0000
  2862 O60     17.7046  42.3345  21.2163   Oco2      1 RES1   0.0000
  2863 O70      0.1302  51.2519  30.1337   O.2       1 RES1   0.0000
  2864 O72      0.1302  46.8395  32.2881   O.2       1 RES1   0.0000
  2865 O77     -1.6158  39.3935  27.1785   O.2       1 RES1   0.0000
  2866 O78     -1.6158  40.8631  35.2433   O.2       1 RES1   0.0000
  2867 O85     14.1109  44.1607  37.2854   Oco2      1 RES1   0.0000
  2868 O86     12.6413  36.0959  37.2854   Oco2      1 RES1   0.0000
  2869 O89     19.4506  49.7805  26.3259   Oco2      1 RES1   0.0000
  2870 O90     19.4506  48.3109  18.2611   Oco2      1 RES1   0.0000
  2871 O93      8.4911  55.1202  31.9457   O.2       1 RES1   0.0000
  2872 O94      0.4263  55.1202  30.4761   O.2       1 RES1   0.0000
  2873 O97     19.1992  46.2225  16.6809   O3        1 RES1   0.0000
  2874 O100    19.1992  51.8689  27.9061   O3        1 RES1   0.0000
  2875 O101    -1.1539  54.8688  28.3877   O3        1 RES1   0.0000
  2876 O102    -1.1539  43.2226  34.0341   O3        1 RES1   0.0000
  2877 O104    10.0713  54.8688  34.0341   O3        1 RES1   0.0000
  2878 O108    16.1993  45.7409  37.0340   O3        1 RES1   0.0000
  2879 O109    -1.3644  42.9515  36.8235   O3        1 RES1   0.0000
  2880 O109    16.4704  42.9515  36.8235   O3        1 RES1   0.0000
  2881 O110    10.2818  37.3051  36.8235   O3        1 RES1   0.0000
  2882 O112    -1.3644  37.3051  25.5983   O3        1 RES1   0.0000
  2883 O113    18.9887  52.1400  25.1167   O3        1 RES1   0.0000
  2884 O114    18.9887  45.9514  19.4703   O3        1 RES1   0.0000
  2885 O117     7.2819  54.6583  34.3052   O3        1 RES1   0.0000
  2886 O118     1.6355  54.6583  28.1166   O3        1 RES1   0.0000
  2887 O120     1.6355  43.4331  16.4704   O3        1 RES1   0.0000
  2888 O153     1.4000  43.1870  37.0696   O3        1 RES1   0.0000
  2889 O153    19.2348  43.1870  19.2348   O3        1 RES1   0.0000
  2890 O154     7.5174  54.9044  19.2348   O3        1 RES1   0.0000
  2891 O156     1.4000  54.9044  25.3522   O3        1 RES1   0.0000
  2892 O156    19.2348  37.0696  25.3522   O3        1 RES1   0.0000
  2893 O157    -1.4000  45.9870  34.2696   O3        1 RES1   0.0000
  2894 O160    -1.4000  52.1044  28.1522   O3        1 RES1   0.0000
  2895 Zr3      6.4589  44.7855  44.3751   Zr        1 RES1   0.0000
  2896 Zr4      2.4585  53.3059  44.3751   Zr        1 RES1   0.0000
  2897 Zr6      0.2119  42.1285  53.3059   Zr        1 RES1   0.0000
  2898 Zr7      8.7055  42.1285  44.7855   Zr        1 RES1   0.0000
  2899 Zr11     9.1159  44.3751  42.1285   Zr        1 RES1   0.0000
  2900 Zr13    15.3763  44.3885  53.2925   Zr        1 RES1   0.0000
  2901 Zr15    11.3759  44.3885  44.7989   Zr        1 RES1   0.0000
  2902 Zr17    17.6229  51.0459  44.3885   Zr        1 RES1   0.0000
  2903 Zr19     9.1293  47.0455  44.3885   Zr        1 RES1   0.0000
  2904 Zr21     8.7189  53.2925  51.0459   Zr        1 RES1   0.0000
  2905 Zr22     0.1985  53.2925  47.0455   Zr        1 RES1   0.0000
  2906 Zr23     8.7189  44.7989  47.0455   Zr        1 RES1   0.0000
  2907 Zr24     0.1985  44.7989  51.0459   Zr        1 RES1   0.0000
  2908 O1       3.7275  42.9551  35.8123   Oco2      1 RES1   0.0000
  2909 O3       5.1899  42.9551  44.4443   Oco2      1 RES1   0.0000
  2910 O5       0.1427  39.3971  42.9551   Oco2      1 RES1   0.0000
  2911 O7       8.7747  40.8595  42.9551   Oco2      1 RES1   0.0000
  2912 O9       7.2855  35.8123  39.3971   Oco2      1 RES1   0.0000
  2913 O10      1.6319  35.8123  40.8595   Oco2      1 RES1   0.0000
  2914 O11      7.2855  44.4443  40.8595   Oco2      1 RES1   0.0000
  2915 O12      1.6319  44.4443  39.3971   Oco2      1 RES1   0.0000
  2916 O13     14.1073  46.2189  53.3617   Oco2      1 RES1   0.0000
  2917 O14     12.6449  51.8725  53.3617   Oco2      1 RES1   0.0000
  2918 O15     12.6449  46.2189  44.7297   Oco2      1 RES1   0.0000
  2919 O16     14.1073  51.8725  44.7297   Oco2      1 RES1   0.0000
  2920 O17     17.6921  49.7769  46.2189   Oco2      1 RES1   0.0000
  2921 O18     17.6921  48.3145  51.8725   Oco2      1 RES1   0.0000
  2922 O19      9.0601  48.3145  46.2189   Oco2      1 RES1   0.0000
  2923 O20      9.0601  49.7769  51.8725   Oco2      1 RES1   0.0000
  2924 O21     10.5493  53.3617  49.7769   Oco2      1 RES1   0.0000
  2925 O22     16.2029  53.3617  48.3145   Oco2      1 RES1   0.0000
  2926 O23     10.5493  44.7297  48.3145   Oco2      1 RES1   0.0000
  2927 O24     16.2029  44.7297  49.7769   Oco2      1 RES1   0.0000
  2928 O25      3.3957  46.8092  36.1083   Oco2      1 RES1   0.0000
  2929 O26      5.5217  51.2822  36.1083   Oco2      1 RES1   0.0000
  2930 O27      5.5217  46.8092  44.1483   Oco2      1 RES1   0.0000
  2931 O28      3.3957  51.2822  44.1483   Oco2      1 RES1   0.0000
  2932 O29      0.4387  39.0653  46.8092   Oco2      1 RES1   0.0000
  2933 O30      0.4387  41.1913  51.2822   Oco2      1 RES1   0.0000
  2934 O31      8.4787  41.1913  46.8092   Oco2      1 RES1   0.0000
  2935 O32      8.4787  39.0653  51.2822   Oco2      1 RES1   0.0000
  2936 O33     11.1396  36.1083  39.0653   Oco2      1 RES1   0.0000
  2937 O34     15.6126  36.1083  41.1913   Oco2      1 RES1   0.0000
  2938 O35     11.1396  44.1483  41.1913   Oco2      1 RES1   0.0000
  2939 O36     15.6126  44.1483  39.0653   Oco2      1 RES1   0.0000
  2940 O37     14.4391  42.3648  53.0657   Oco2      1 RES1   0.0000
  2941 O38     12.3131  37.8918  53.0657   Oco2      1 RES1   0.0000
  2942 O39     12.3131  42.3648  45.0257   Oco2      1 RES1   0.0000
  2943 O40     14.4391  37.8918  45.0257   Oco2      1 RES1   0.0000
  2944 O41     17.3961  50.1087  42.3648   Oco2      1 RES1   0.0000
  2945 O42     17.3961  47.9827  37.8918   Oco2      1 RES1   0.0000
  2946 O43      9.3561  47.9827  42.3648   Oco2      1 RES1   0.0000
  2947 O44      9.3561  50.1087  37.8918   Oco2      1 RES1   0.0000
  2948 O45      6.6952  53.0657  50.1087   Oco2      1 RES1   0.0000
  2949 O46      2.2222  53.0657  47.9827   Oco2      1 RES1   0.0000
  2950 O47      6.6952  45.0257  47.9827   Oco2      1 RES1   0.0000
  2951 O48      2.2222  45.0257  50.1087   Oco2      1 RES1   0.0000
  2952 O49      3.3815  44.7172  37.9221   Oco2      1 RES1   0.0000
  2953 O51      5.5359  44.7172  42.3345   Oco2      1 RES1   0.0000
  2954 O53      2.2525  39.0511  44.7172   Oco2      1 RES1   0.0000
  2955 O55      6.6649  41.2055  44.7172   Oco2      1 RES1   0.0000
  2956 O57      9.0476  37.9221  39.0511   Oco2      1 RES1   0.0000
  2957 O58     -0.1302  37.9221  41.2055   Oco2      1 RES1   0.0000
  2958 O59      9.0476  42.3345  41.2055   Oco2      1 RES1   0.0000
  2959 O60     -0.1302  42.3345  39.0511   Oco2      1 RES1   0.0000
  2960 O61     14.4533  44.4568  51.2519   Oco2      1 RES1   0.0000
  2961 O62     12.2989  53.6346  51.2519   Oco2      1 RES1   0.0000
  2962 O63     12.2989  44.4568  46.8395   Oco2      1 RES1   0.0000
  2963 O64     14.4533  53.6346  46.8395   Oco2      1 RES1   0.0000
  2964 O65     15.5823  50.1229  44.4568   Oco2      1 RES1   0.0000
  2965 O66     15.5823  47.9685  53.6346   Oco2      1 RES1   0.0000
  2966 O67     11.1699  47.9685  44.4568   Oco2      1 RES1   0.0000
  2967 O68     11.1699  50.1229  53.6346   Oco2      1 RES1   0.0000
  2968 O69      8.7872  51.2519  50.1229   Oco2      1 RES1   0.0000
  2969 O70     17.9650  51.2519  47.9685   Oco2      1 RES1   0.0000
  2970 O71      8.7872  46.8395  47.9685   Oco2      1 RES1   0.0000
  2971 O72     17.9650  46.8395  50.1229   Oco2      1 RES1   0.0000
  2972 O73      3.7239  45.0133  51.8886   Oco2      1 RES1   0.0000
  2973 O74      5.1935  53.0781  51.8886   Oco2      1 RES1   0.0000
  2974 O75      5.1935  45.0133  46.2028   Oco2      1 RES1   0.0000
  2975 O76      3.7239  53.0781  46.2028   Oco2      1 RES1   0.0000
  2976 O77     16.2190  39.3935  45.0133   Oco2      1 RES1   0.0000
  2977 O78     16.2190  40.8631  53.0781   Oco2      1 RES1   0.0000
  2978 O79     10.5332  40.8631  45.0133   Oco2      1 RES1   0.0000
  2979 O80     10.5332  39.3935  53.0781   Oco2      1 RES1   0.0000
  2980 O81      9.3437  51.8886  39.3935   Oco2      1 RES1   0.0000
  2981 O82     17.4085  51.8886  40.8631   Oco2      1 RES1   0.0000
  2982 O83      9.3437  46.2028  40.8631   Oco2      1 RES1   0.0000
  2983 O84     17.4085  46.2028  39.3935   Oco2      1 RES1   0.0000
  2984 O87     12.6413  44.1607  42.9712   Oco2      1 RES1   0.0000
  2985 O88     14.1109  36.0959  42.9712   Oco2      1 RES1   0.0000
  2986 O89      1.6158  49.7805  44.1607   Oco2      1 RES1   0.0000
  2987 O90      1.6158  48.3109  36.0959   Oco2      1 RES1   0.0000
  2988 O91      7.3016  48.3109  44.1607   Oco2      1 RES1   0.0000
  2989 O92      7.3016  49.7805  36.0959   Oco2      1 RES1   0.0000
  2990 O95      8.4911  42.9712  48.3109   Oco2      1 RES1   0.0000
  2991 O96      0.4263  42.9712  49.7805   Oco2      1 RES1   0.0000
  2992 C1       2.8607  47.9596  36.0976   C.2       1 RES1   0.0000
  2993 C2       6.0567  50.1318  36.0976   C.2       1 RES1   0.0000
  2994 C3       6.0567  47.9596  44.1590   C.2       1 RES1   0.0000
  2995 C4       2.8607  50.1318  44.1590   C.2       1 RES1   0.0000
  2996 C5       0.4280  38.5303  47.9596   C.2       1 RES1   0.0000
  2997 C6       0.4280  41.7263  50.1318   C.2       1 RES1   0.0000
  2998 C7       8.4894  41.7263  47.9596   C.2       1 RES1   0.0000
  2999 C8       8.4894  38.5303  50.1318   C.2       1 RES1   0.0000
  3000 C9      12.2900  36.0976  38.5303   C.2       1 RES1   0.0000
  3001 C10     14.4622  36.0976  41.7263   C.2       1 RES1   0.0000
  3002 C11     12.2900  44.1590  41.7263   C.2       1 RES1   0.0000
  3003 C12     14.4622  44.1590  38.5303   C.2       1 RES1   0.0000
  3004 C13     14.9741  41.2144  53.0764   C.2       1 RES1   0.0000
  3005 C14     11.7781  39.0422  53.0764   C.2       1 RES1   0.0000
  3006 C15     11.7781  41.2144  45.0150   C.2       1 RES1   0.0000
  3007 C16     14.9741  39.0422  45.0150   C.2       1 RES1   0.0000
  3008 C17     17.4068  50.6437  41.2144   C.2       1 RES1   0.0000
  3009 C18     17.4068  47.4477  39.0422   C.2       1 RES1   0.0000
  3010 C19      9.3454  47.4477  41.2144   C.2       1 RES1   0.0000
  3011 C20      9.3454  50.6437  39.0422   C.2       1 RES1   0.0000
  3012 C21      5.5448  53.0764  50.6437   C.2       1 RES1   0.0000
  3013 C22      3.3726  53.0764  47.4477   C.2       1 RES1   0.0000
  3014 C23      5.5448  45.0150  47.4477   C.2       1 RES1   0.0000
  3015 C24      3.3726  45.0150  50.6437   C.2       1 RES1   0.0000
  3016 C25      3.8202  49.1438  36.1030   C.2       1 RES1   0.0000
  3017 C26      5.0972  48.9476  36.1030   C.2       1 RES1   0.0000
  3018 C27      5.0972  49.1438  44.1536   C.2       1 RES1   0.0000
  3019 C28      3.8202  48.9476  44.1536   C.2       1 RES1   0.0000
  3020 C29      0.4334  39.4898  49.1438   C.2       1 RES1   0.0000
  3021 C30      0.4334  40.7668  48.9476   C.2       1 RES1   0.0000
  3022 C31      8.4840  40.7668  49.1438   C.2       1 RES1   0.0000
  3023 C32      8.4840  39.4898  48.9476   C.2       1 RES1   0.0000
  3024 C33     13.4742  36.1030  39.4898   C.2       1 RES1   0.0000
  3025 C34     13.2780  36.1030  40.7668   C.2       1 RES1   0.0000
  3026 C35     13.4742  44.1536  40.7668   C.2       1 RES1   0.0000
  3027 C36     13.2780  44.1536  39.4898   C.2       1 RES1   0.0000
  3028 C37     14.0146  40.0302  53.0710   C.2       1 RES1   0.0000
  3029 C38     12.7376  40.2264  53.0710   C.2       1 RES1   0.0000
  3030 C39     12.7376  40.0302  45.0204   C.2       1 RES1   0.0000
  3031 C40     14.0146  40.2264  45.0204   C.2       1 RES1   0.0000
  3032 C41     17.4014  49.6842  40.0302   C.2       1 RES1   0.0000
  3033 C42     17.4014  48.4072  40.2264   C.2       1 RES1   0.0000
  3034 C43      9.3508  48.4072  40.0302   C.2       1 RES1   0.0000
  3035 C44      9.3508  49.6842  40.2264   C.2       1 RES1   0.0000
  3036 C45      4.3606  53.0710  49.6842   C.2       1 RES1   0.0000
  3037 C46      4.5568  53.0710  48.4072   C.2       1 RES1   0.0000
  3038 C47      4.3606  45.0204  48.4072   C.2       1 RES1   0.0000
  3039 C48      4.5568  45.0204  49.6842   C.2       1 RES1   0.0000
  3040 H1       3.4867  50.0123  36.1048   H         1 RES1   0.0000
  3041 H2       5.4307  48.0791  36.1048   H         1 RES1   0.0000
  3042 H3       5.4307  50.0123  44.1518   H         1 RES1   0.0000
  3043 H4       3.4867  48.0791  44.1518   H         1 RES1   0.0000
  3044 H5       0.4352  39.1563  50.0123   H         1 RES1   0.0000
  3045 H6       0.4352  41.1003  48.0791   H         1 RES1   0.0000
  3046 H7       8.4822  41.1003  50.0123   H         1 RES1   0.0000
  3047 H8       8.4822  39.1563  48.0791   H         1 RES1   0.0000
  3048 H9      14.3427  36.1048  39.1563   H         1 RES1   0.0000
  3049 H10     12.4095  36.1048  41.1003   H         1 RES1   0.0000
  3050 H11     14.3427  44.1518  41.1003   H         1 RES1   0.0000
  3051 H12     12.4095  44.1518  39.1563   H         1 RES1   0.0000
  3052 H13     14.3481  39.1617  53.0692   H         1 RES1   0.0000
  3053 H14     12.4041  41.0949  53.0692   H         1 RES1   0.0000
  3054 H15     12.4041  39.1617  45.0222   H         1 RES1   0.0000
  3055 H16     14.3481  41.0949  45.0222   H         1 RES1   0.0000
  3056 H17     17.3996  50.0177  39.1617   H         1 RES1   0.0000
  3057 H18     17.3996  48.0737  41.0949   H         1 RES1   0.0000
  3058 H19      9.3526  48.0737  39.1617   H         1 RES1   0.0000
  3059 H20      9.3526  50.0177  41.0949   H         1 RES1   0.0000
  3060 H21      3.4921  53.0692  50.0177   H         1 RES1   0.0000
  3061 H22      5.4253  53.0692  48.0737   H         1 RES1   0.0000
  3062 H23      3.4921  45.0222  48.0737   H         1 RES1   0.0000
  3063 H24      5.4253  45.0222  50.0177   H         1 RES1   0.0000
  3064 C49      3.3993  41.7299  35.6696   C.2       1 RES1   0.0000
  3065 C50      5.5181  38.5267  35.6696   C.2       1 RES1   0.0000
  3066 C51      5.5181  41.7299  44.5870   C.2       1 RES1   0.0000
  3067 C52      3.3993  38.5267  44.5870   C.2       1 RES1   0.0000
  3068 C53      0.0000  39.0689  41.7299   C.2       1 RES1   0.0000
  3069 C54      0.0000  41.1877  38.5267   C.2       1 RES1   0.0000
  3070 C55      8.9174  41.1877  41.7299   C.2       1 RES1   0.0000
  3071 C56      8.9174  39.0689  38.5267   C.2       1 RES1   0.0000
  3072 C57      6.0603  35.6696  39.0689   C.2       1 RES1   0.0000
  3073 C58      2.8571  35.6696  41.1877   C.2       1 RES1   0.0000
  3074 C59      6.0603  44.5870  41.1877   C.2       1 RES1   0.0000
  3075 C60      2.8571  44.5870  39.0689   C.2       1 RES1   0.0000
  3076 C61     14.4355  47.4441  53.5044   C.2       1 RES1   0.0000
  3077 C62     12.3167  50.6473  53.5044   C.2       1 RES1   0.0000
  3078 C63     12.3167  47.4441  44.5870   C.2       1 RES1   0.0000
  3079 C64     14.4355  50.6473  44.5870   C.2       1 RES1   0.0000
  3080 C65     17.8348  50.1051  47.4441   C.2       1 RES1   0.0000
  3081 C66     17.8348  47.9863  50.6473   C.2       1 RES1   0.0000
  3082 C67      8.9174  47.9863  47.4441   C.2       1 RES1   0.0000
  3083 C68      8.9174  50.1051  50.6473   C.2       1 RES1   0.0000
  3084 C69     11.7745  53.5044  50.1051   C.2       1 RES1   0.0000
  3085 C70     14.9777  53.5044  47.9863   C.2       1 RES1   0.0000
  3086 C71     11.7745  44.5870  47.9863   C.2       1 RES1   0.0000
  3087 C72     14.9777  44.5870  50.1051   C.2       1 RES1   0.0000
  3088 C73      4.5782  40.7793  35.6714   C.2       1 RES1   0.0000
  3089 C74      4.3392  39.4773  35.6714   C.2       1 RES1   0.0000
  3090 C75      4.3392  40.7793  44.5852   C.2       1 RES1   0.0000
  3091 C76      4.5782  39.4773  44.5852   C.2       1 RES1   0.0000
  3092 C77      0.0018  40.2478  40.7793   C.2       1 RES1   0.0000
  3093 C78      0.0018  40.0088  39.4773   C.2       1 RES1   0.0000
  3094 C79      8.9156  40.0088  40.7793   C.2       1 RES1   0.0000
  3095 C80      8.9156  40.2478  39.4773   C.2       1 RES1   0.0000
  3096 C81      5.1097  35.6714  40.2478   C.2       1 RES1   0.0000
  3097 C82      3.8077  35.6714  40.0088   C.2       1 RES1   0.0000
  3098 C83      5.1097  44.5852  40.0088   C.2       1 RES1   0.0000
  3099 C84      3.8077  44.5852  40.2478   C.2       1 RES1   0.0000
  3100 C85     13.2566  48.3947  53.5026   C.2       1 RES1   0.0000
  3101 C86     13.4956  49.6967  53.5026   C.2       1 RES1   0.0000
  3102 C87     13.4956  48.3947  44.5888   C.2       1 RES1   0.0000
  3103 C88     13.2566  49.6967  44.5888   C.2       1 RES1   0.0000
  3104 C89     17.8330  48.9262  48.3947   C.2       1 RES1   0.0000
  3105 C90     17.8330  49.1652  49.6967   C.2       1 RES1   0.0000
  3106 C91      8.9192  49.1652  48.3947   C.2       1 RES1   0.0000
  3107 C92      8.9192  48.9262  49.6967   C.2       1 RES1   0.0000
  3108 C93     12.7251  53.5026  48.9262   C.2       1 RES1   0.0000
  3109 C94     14.0271  53.5026  49.1652   C.2       1 RES1   0.0000
  3110 C95     12.7251  44.5888  49.1652   C.2       1 RES1   0.0000
  3111 C96     14.0271  44.5888  48.9262   C.2       1 RES1   0.0000
  3112 H25      5.4503  41.1021  35.6714   H         1 RES1   0.0000
  3113 H26      3.4671  39.1545  35.6714   H         1 RES1   0.0000
  3114 H27      3.4671  41.1021  44.5852   H         1 RES1   0.0000
  3115 H28      5.4503  39.1545  44.5852   H         1 RES1   0.0000
  3116 H29      0.0018  41.1199  41.1021   H         1 RES1   0.0000
  3117 H30      0.0018  39.1367  39.1545   H         1 RES1   0.0000
  3118 H31      8.9156  39.1367  41.1021   H         1 RES1   0.0000
  3119 H32      8.9156  41.1199  39.1545   H         1 RES1   0.0000
  3120 H33      5.4325  35.6714  41.1199   H         1 RES1   0.0000
  3121 H34      3.4849  35.6714  39.1367   H         1 RES1   0.0000
  3122 H35      5.4325  44.5852  39.1367   H         1 RES1   0.0000
  3123 H36      3.4849  44.5852  41.1199   H         1 RES1   0.0000
  3124 H37     12.3845  48.0719  53.5026   H         1 RES1   0.0000
  3125 H38     14.3677  50.0195  53.5026   H         1 RES1   0.0000
  3126 H39     14.3677  48.0719  44.5888   H         1 RES1   0.0000
  3127 H40     12.3845  50.0195  44.5888   H         1 RES1   0.0000
  3128 H41     17.8330  48.0541  48.0719   H         1 RES1   0.0000
  3129 H42     17.8330  50.0373  50.0195   H         1 RES1   0.0000
  3130 H43      8.9192  50.0373  48.0719   H         1 RES1   0.0000
  3131 H44      8.9192  48.0541  50.0195   H         1 RES1   0.0000
  3132 H45     12.4023  53.5026  48.0541   H         1 RES1   0.0000
  3133 H46     14.3499  53.5026  50.0373   H         1 RES1   0.0000
  3134 H47     12.4023  44.5888  50.0373   H         1 RES1   0.0000
  3135 H48     14.3499  44.5888  48.0541   H         1 RES1   0.0000
  3136 O97      1.3644  46.2225  52.3505   O3        1 RES1   0.0000
  3137 O98      7.5530  51.8689  52.3505   O3        1 RES1   0.0000
  3138 O99      7.5530  46.2225  45.7409   O3        1 RES1   0.0000
  3139 O100     1.3644  51.8689  45.7409   O3        1 RES1   0.0000
  3140 O101    16.6809  37.0340  46.2225   O3        1 RES1   0.0000
  3141 O102    16.6809  43.2226  51.8689   O3        1 RES1   0.0000
  3142 O103    10.0713  43.2226  46.2225   O3        1 RES1   0.0000
  3143 O105    10.5529  52.3505  37.0340   O3        1 RES1   0.0000
  3144 O106    16.1993  52.3505  43.2226   O3        1 RES1   0.0000
  3145 O107    10.5529  45.7409  43.2226   O3        1 RES1   0.0000
  3146 O111    10.2818  42.9515  43.4331   O3        1 RES1   0.0000
  3147 O112    16.4704  37.3051  43.4331   O3        1 RES1   0.0000
  3148 O113     1.1539  52.1400  42.9515   O3        1 RES1   0.0000
  3149 O114     1.1539  45.9514  37.3051   O3        1 RES1   0.0000
  3150 O115     7.7635  45.9514  42.9515   O3        1 RES1   0.0000
  3151 O116     7.7635  52.1400  37.3051   O3        1 RES1   0.0000
  3152 O119     7.2819  43.4331  45.9514   O3        1 RES1   0.0000
  3153 O155     7.5174  43.1870  43.1870   O3        1 RES1   0.0000
  3154 O157    16.4348  45.9870  52.1044   O3        1 RES1   0.0000
  3155 O158    10.3174  52.1044  52.1044   O3        1 RES1   0.0000
  3156 O159    10.3174  45.9870  45.9870   O3        1 RES1   0.0000
  3157 O160    16.4348  52.1044  45.9870   O3        1 RES1   0.0000
  3158 Zr1      2.4585  44.7855  53.7163   Zr        1 RES1   0.0000
  3159 Zr1     20.2933  44.7855  35.8815   Zr        1 RES1   0.0000
  3160 Zr2      6.4589  53.3059  53.7163   Zr        1 RES1   0.0000
  3161 Zr4     20.2933  53.3059  44.3751   Zr        1 RES1   0.0000
  3162 Zr5      0.2119  55.9629  44.7855   Zr        1 RES1   0.0000
  3163 Zr5     18.0467  38.1281  44.7855   Zr        1 RES1   0.0000
  3164 Zr6     18.0467  42.1285  53.3059   Zr        1 RES1   0.0000
  3165 Zr8      8.7055  55.9629  53.3059   Zr        1 RES1   0.0000
  3166 Zr9      9.1159  35.8815  55.9629   Zr        1 RES1   0.0000
  3167 Zr9      9.1159  53.7163  38.1281   Zr        1 RES1   0.0000
  3168 Zr10    -0.1985  53.7163  42.1285   Zr        1 RES1   0.0000
  3169 Zr10    17.6363  53.7163  42.1285   Zr        1 RES1   0.0000
  3170 Zr12    -0.1985  44.3751  55.9629   Zr        1 RES1   0.0000
  3171 Zr12    17.6363  44.3751  55.9629   Zr        1 RES1   0.0000
  3172 Zr13    -2.4585  44.3885  53.2925   Zr        1 RES1   0.0000
  3173 Zr14    11.3759  53.7029  53.2925   Zr        1 RES1   0.0000
  3174 Zr16    -2.4585  53.7029  44.7989   Zr        1 RES1   0.0000
  3175 Zr16    15.3763  53.7029  44.7989   Zr        1 RES1   0.0000
  3176 Zr17    -0.2119  51.0459  44.3885   Zr        1 RES1   0.0000
  3177 Zr18    -0.2119  47.0455  53.7029   Zr        1 RES1   0.0000
  3178 Zr18    17.6229  47.0455  53.7029   Zr        1 RES1   0.0000
  3179 Zr20     9.1293  51.0459  53.7029   Zr        1 RES1   0.0000
  3180 Zr22    18.0333  53.2925  47.0455   Zr        1 RES1   0.0000
  3181 Zr24    18.0333  44.7989  51.0459   Zr        1 RES1   0.0000
  3182 O2       5.1899  55.1363  35.8123   O.2       1 RES1   0.0000
  3183 O4       3.7275  55.1363  44.4443   O.2       1 RES1   0.0000
  3184 O6       0.1427  40.8595  55.1363   O.2       1 RES1   0.0000
  3185 O8       8.7747  39.3971  55.1363   O.2       1 RES1   0.0000
  3186 O10     19.4667  35.8123  40.8595   Oco2      1 RES1   0.0000
  3187 O12     19.4667  44.4443  39.3971   Oco2      1 RES1   0.0000
  3188 O22     -1.6319  53.3617  48.3145   O.2       1 RES1   0.0000
  3189 O24     -1.6319  44.7297  49.7769   O.2       1 RES1   0.0000
  3190 O50      5.5359  53.3742  37.9221   O.2       1 RES1   0.0000
  3191 O52      3.3815  53.3742  42.3345   O.2       1 RES1   0.0000
  3192 O54      2.2525  41.2055  53.3742   O.2       1 RES1   0.0000
  3193 O56      6.6649  39.0511  53.3742   O.2       1 RES1   0.0000
  3194 O58     17.7046  37.9221  41.2055   Oco2      1 RES1   0.0000
  3195 O60     17.7046  42.3345  39.0511   Oco2      1 RES1   0.0000
  3196 O70      0.1302  51.2519  47.9685   O.2       1 RES1   0.0000
  3197 O72      0.1302  46.8395  50.1229   O.2       1 RES1   0.0000
  3198 O77     -1.6158  39.3935  45.0133   O.2       1 RES1   0.0000
  3199 O78     -1.6158  40.8631  53.0781   O.2       1 RES1   0.0000
  3200 O85     14.1109  44.1607  55.1202   O.2       1 RES1   0.0000
  3201 O86     12.6413  36.0959  55.1202   O.2       1 RES1   0.0000
  3202 O89     19.4506  49.7805  44.1607   Oco2      1 RES1   0.0000
  3203 O90     19.4506  48.3109  36.0959   Oco2      1 RES1   0.0000
  3204 O93      8.4911  55.1202  49.7805   O.2       1 RES1   0.0000
  3205 O94      0.4263  55.1202  48.3109   O.2       1 RES1   0.0000
  3206 O97     19.1992  46.2225  34.5157   O3        1 RES1   0.0000
  3207 O100    19.1992  51.8689  45.7409   O3        1 RES1   0.0000
  3208 O101    -1.1539  54.8688  46.2225   O3        1 RES1   0.0000
  3209 O102    -1.1539  43.2226  51.8689   O3        1 RES1   0.0000
  3210 O104    10.0713  54.8688  51.8689   O3        1 RES1   0.0000
  3211 O105    10.5529  34.5157  54.8688   O3        1 RES1   0.0000
  3212 O108    16.1993  45.7409  54.8688   O3        1 RES1   0.0000
  3213 O109    -1.3644  42.9515  54.6583   O3        1 RES1   0.0000
  3214 O109    16.4704  42.9515  54.6583   O3        1 RES1   0.0000
  3215 O110    10.2818  37.3051  54.6583   O3        1 RES1   0.0000
  3216 O112    -1.3644  37.3051  43.4331   O3        1 RES1   0.0000
  3217 O113    18.9887  52.1400  42.9515   O3        1 RES1   0.0000
  3218 O114    18.9887  45.9514  37.3051   O3        1 RES1   0.0000
  3219 O117     7.2819  54.6583  52.1400   O3        1 RES1   0.0000
  3220 O118     1.6355  54.6583  45.9514   O3        1 RES1   0.0000
  3221 O120     1.6355  43.4331  34.3052   O3        1 RES1   0.0000
  3222 O153     1.4000  43.1870  54.9044   O3        1 RES1   0.0000
  3223 O153    19.2348  43.1870  37.0696   O3        1 RES1   0.0000
  3224 O154     7.5174  37.0696  54.9044   O3        1 RES1   0.0000
  3225 O154     7.5174  54.9044  37.0696   O3        1 RES1   0.0000
  3226 O156     1.4000  54.9044  43.1870   O3        1 RES1   0.0000
  3227 O156    19.2348  37.0696  43.1870   O3        1 RES1   0.0000
  3228 O157    -1.4000  45.9870  52.1044   O3        1 RES1   0.0000
  3229 O160    -1.4000  52.1044  45.9870   O3        1 RES1   0.0000
  3230 Zr2     24.2937  17.6363   0.2119   Zr        1 RES1   0.0000
  3231 Zr3     24.2937   9.1159   8.7055   Zr        1 RES1   0.0000
  3232 Zr7     26.5403   6.4589   9.1159   Zr        1 RES1   0.0000
  3233 Zr8     26.5403   2.4585  17.6363   Zr        1 RES1   0.0000
  3234 Zr9     26.9507   0.2119   2.4585   Zr        1 RES1   0.0000
  3235 Zr10    35.4711   0.2119   6.4589   Zr        1 RES1   0.0000
  3236 Zr11    26.9507   8.7055   6.4589   Zr        1 RES1   0.0000
  3237 Zr12    35.4711   8.7055   2.4585   Zr        1 RES1   0.0000
  3238 Zr13    33.2111   8.7189  17.6229   Zr        1 RES1   0.0000
  3239 Zr14    29.2107   0.1985  17.6229   Zr        1 RES1   0.0000
  3240 Zr15    29.2107   8.7189   9.1293   Zr        1 RES1   0.0000
  3241 Zr16    33.2111   0.1985   9.1293   Zr        1 RES1   0.0000
  3242 Zr17    35.4577  15.3763   8.7189   Zr        1 RES1   0.0000
  3243 Zr18    35.4577  11.3759   0.1985   Zr        1 RES1   0.0000
  3244 Zr19    26.9641  11.3759   8.7189   Zr        1 RES1   0.0000
  3245 Zr20    26.9641  15.3763   0.1985   Zr        1 RES1   0.0000
  3246 Zr21    26.5537  17.6229  15.3763   Zr        1 RES1   0.0000
  3247 Zr23    26.5537   9.1293  11.3759   Zr        1 RES1   0.0000
  3248 O1      21.5623   7.2855   0.1427   Oco2      1 RES1   0.0000
  3249 O2      23.0247   1.6319   0.1427   Oco2      1 RES1   0.0000
  3250 O3      23.0247   7.2855   8.7747   Oco2      1 RES1   0.0000
  3251 O4      21.5623   1.6319   8.7747   Oco2      1 RES1   0.0000
  3252 O5      17.9775   3.7275   7.2855   Oco2      1 RES1   0.0000
  3253 O6      17.9775   5.1899   1.6319   Oco2      1 RES1   0.0000
  3254 O7      26.6095   5.1899   7.2855   Oco2      1 RES1   0.0000
  3255 O8      26.6095   3.7275   1.6319   Oco2      1 RES1   0.0000
  3256 O9      25.1203   0.1427   3.7275   Oco2      1 RES1   0.0000
  3257 O11     25.1203   8.7747   5.1899   Oco2      1 RES1   0.0000
  3258 O13     31.9421  10.5493  17.6921   Oco2      1 RES1   0.0000
  3259 O14     30.4797  16.2029  17.6921   Oco2      1 RES1   0.0000
  3260 O15     30.4797  10.5493   9.0601   Oco2      1 RES1   0.0000
  3261 O16     31.9421  16.2029   9.0601   Oco2      1 RES1   0.0000
  3262 O17     35.5269  14.1073  10.5493   Oco2      1 RES1   0.0000
  3263 O18     35.5269  12.6449  16.2029   Oco2      1 RES1   0.0000
  3264 O19     26.8949  12.6449  10.5493   Oco2      1 RES1   0.0000
  3265 O20     26.8949  14.1073  16.2029   Oco2      1 RES1   0.0000
  3266 O21     28.3841  17.6921  14.1073   Oco2      1 RES1   0.0000
  3267 O22     34.0377  17.6921  12.6449   Oco2      1 RES1   0.0000
  3268 O23     28.3841   9.0601  12.6449   Oco2      1 RES1   0.0000
  3269 O24     34.0377   9.0601  14.1073   Oco2      1 RES1   0.0000
  3270 O25     21.2305  11.1396   0.4387   Oco2      1 RES1   0.0000
  3271 O26     23.3565  15.6126   0.4387   Oco2      1 RES1   0.0000
  3272 O27     23.3565  11.1396   8.4787   Oco2      1 RES1   0.0000
  3273 O28     21.2305  15.6126   8.4787   Oco2      1 RES1   0.0000
  3274 O29     18.2735   3.3957  11.1396   Oco2      1 RES1   0.0000
  3275 O30     18.2735   5.5217  15.6126   Oco2      1 RES1   0.0000
  3276 O31     26.3135   5.5217  11.1396   Oco2      1 RES1   0.0000
  3277 O32     26.3135   3.3957  15.6126   Oco2      1 RES1   0.0000
  3278 O33     28.9744   0.4387   3.3957   Oco2      1 RES1   0.0000
  3279 O34     33.4474   0.4387   5.5217   Oco2      1 RES1   0.0000
  3280 O35     28.9744   8.4787   5.5217   Oco2      1 RES1   0.0000
  3281 O36     33.4474   8.4787   3.3957   Oco2      1 RES1   0.0000
  3282 O37     32.2739   6.6952  17.3961   Oco2      1 RES1   0.0000
  3283 O38     30.1479   2.2222  17.3961   Oco2      1 RES1   0.0000
  3284 O39     30.1479   6.6952   9.3561   Oco2      1 RES1   0.0000
  3285 O40     32.2739   2.2222   9.3561   Oco2      1 RES1   0.0000
  3286 O41     35.2309  14.4391   6.6952   Oco2      1 RES1   0.0000
  3287 O42     35.2309  12.3131   2.2222   Oco2      1 RES1   0.0000
  3288 O43     27.1909  12.3131   6.6952   Oco2      1 RES1   0.0000
  3289 O44     27.1909  14.4391   2.2222   Oco2      1 RES1   0.0000
  3290 O45     24.5300  17.3961  14.4391   Oco2      1 RES1   0.0000
  3291 O46     20.0570  17.3961  12.3131   Oco2      1 RES1   0.0000
  3292 O47     24.5300   9.3561  12.3131   Oco2      1 RES1   0.0000
  3293 O48     20.0570   9.3561  14.4391   Oco2      1 RES1   0.0000
  3294 O49     21.2163   9.0476   2.2525   Oco2      1 RES1   0.0000
  3295 O50     23.3707  -0.1302   2.2525   Oco2      1 RES1   0.0000
  3296 O51     23.3707   9.0476   6.6649   Oco2      1 RES1   0.0000
  3297 O52     21.2163  -0.1302   6.6649   Oco2      1 RES1   0.0000
  3298 O53     20.0873   3.3815   9.0476   Oco2      1 RES1   0.0000
  3299 O54     20.0873   5.5359  -0.1302   Oco2      1 RES1   0.0000
  3300 O55     24.4997   5.5359   9.0476   Oco2      1 RES1   0.0000
  3301 O56     24.4997   3.3815  -0.1302   Oco2      1 RES1   0.0000
  3302 O57     26.8824   2.2525   3.3815   Oco2      1 RES1   0.0000
  3303 O59     26.8824   6.6649   5.5359   Oco2      1 RES1   0.0000
  3304 O61     32.2881   8.7872  15.5823   Oco2      1 RES1   0.0000
  3305 O62     30.1337  17.9650  15.5823   Oco2      1 RES1   0.0000
  3306 O63     30.1337   8.7872  11.1699   Oco2      1 RES1   0.0000
  3307 O64     32.2881  17.9650  11.1699   Oco2      1 RES1   0.0000
  3308 O65     33.4171  14.4533   8.7872   Oco2      1 RES1   0.0000
  3309 O66     33.4171  12.2989  17.9650   Oco2      1 RES1   0.0000
  3310 O67     29.0047  12.2989   8.7872   Oco2      1 RES1   0.0000
  3311 O68     29.0047  14.4533  17.9650   Oco2      1 RES1   0.0000
  3312 O69     26.6220  15.5823  14.4533   Oco2      1 RES1   0.0000
  3313 O70     35.7998  15.5823  12.2989   Oco2      1 RES1   0.0000
  3314 O71     26.6220  11.1699  12.2989   Oco2      1 RES1   0.0000
  3315 O72     35.7998  11.1699  14.4533   Oco2      1 RES1   0.0000
  3316 O73     21.5587   9.3437  16.2190   Oco2      1 RES1   0.0000
  3317 O74     23.0283  17.4085  16.2190   Oco2      1 RES1   0.0000
  3318 O75     23.0283   9.3437  10.5332   Oco2      1 RES1   0.0000
  3319 O76     21.5587  17.4085  10.5332   Oco2      1 RES1   0.0000
  3320 O77     34.0538   3.7239   9.3437   Oco2      1 RES1   0.0000
  3321 O78     34.0538   5.1935  17.4085   Oco2      1 RES1   0.0000
  3322 O79     28.3680   5.1935   9.3437   Oco2      1 RES1   0.0000
  3323 O80     28.3680   3.7239  17.4085   Oco2      1 RES1   0.0000
  3324 O81     27.1785  16.2190   3.7239   Oco2      1 RES1   0.0000
  3325 O82     35.2433  16.2190   5.1935   Oco2      1 RES1   0.0000
  3326 O83     27.1785  10.5332   5.1935   Oco2      1 RES1   0.0000
  3327 O84     35.2433  10.5332   3.7239   Oco2      1 RES1   0.0000
  3328 O85     31.9457   8.4911   1.6158   Oco2      1 RES1   0.0000
  3329 O86     30.4761   0.4263   1.6158   Oco2      1 RES1   0.0000
  3330 O87     30.4761   8.4911   7.3016   Oco2      1 RES1   0.0000
  3331 O88     31.9457   0.4263   7.3016   Oco2      1 RES1   0.0000
  3332 O91     25.1364  12.6413   8.4911   Oco2      1 RES1   0.0000
  3333 O92     25.1364  14.1109   0.4263   Oco2      1 RES1   0.0000
  3334 O93     26.3259   1.6158  14.1109   Oco2      1 RES1   0.0000
  3335 O94     18.2611   1.6158  12.6413   Oco2      1 RES1   0.0000
  3336 O95     26.3259   7.3016  12.6413   Oco2      1 RES1   0.0000
  3337 O96     18.2611   7.3016  14.1109   Oco2      1 RES1   0.0000
  3338 C1      20.6955  12.2900   0.4280   C.2       1 RES1   0.0000
  3339 C2      23.8915  14.4622   0.4280   C.2       1 RES1   0.0000
  3340 C3      23.8915  12.2900   8.4894   C.2       1 RES1   0.0000
  3341 C4      20.6955  14.4622   8.4894   C.2       1 RES1   0.0000
  3342 C5      18.2628   2.8607  12.2900   C.2       1 RES1   0.0000
  3343 C6      18.2628   6.0567  14.4622   C.2       1 RES1   0.0000
  3344 C7      26.3242   6.0567  12.2900   C.2       1 RES1   0.0000
  3345 C8      26.3242   2.8607  14.4622   C.2       1 RES1   0.0000
  3346 C9      30.1248   0.4280   2.8607   C.2       1 RES1   0.0000
  3347 C10     32.2970   0.4280   6.0567   C.2       1 RES1   0.0000
  3348 C11     30.1248   8.4894   6.0567   C.2       1 RES1   0.0000
  3349 C12     32.2970   8.4894   2.8607   C.2       1 RES1   0.0000
  3350 C13     32.8089   5.5448  17.4068   C.2       1 RES1   0.0000
  3351 C14     29.6129   3.3726  17.4068   C.2       1 RES1   0.0000
  3352 C15     29.6129   5.5448   9.3454   C.2       1 RES1   0.0000
  3353 C16     32.8089   3.3726   9.3454   C.2       1 RES1   0.0000
  3354 C17     35.2416  14.9741   5.5448   C.2       1 RES1   0.0000
  3355 C18     35.2416  11.7781   3.3726   C.2       1 RES1   0.0000
  3356 C19     27.1802  11.7781   5.5448   C.2       1 RES1   0.0000
  3357 C20     27.1802  14.9741   3.3726   C.2       1 RES1   0.0000
  3358 C21     23.3796  17.4068  14.9741   C.2       1 RES1   0.0000
  3359 C22     21.2074  17.4068  11.7781   C.2       1 RES1   0.0000
  3360 C23     23.3796   9.3454  11.7781   C.2       1 RES1   0.0000
  3361 C24     21.2074   9.3454  14.9741   C.2       1 RES1   0.0000
  3362 C25     21.6550  13.4742   0.4334   C.2       1 RES1   0.0000
  3363 C26     22.9320  13.2780   0.4334   C.2       1 RES1   0.0000
  3364 C27     22.9320  13.4742   8.4840   C.2       1 RES1   0.0000
  3365 C28     21.6550  13.2780   8.4840   C.2       1 RES1   0.0000
  3366 C29     18.2682   3.8202  13.4742   C.2       1 RES1   0.0000
  3367 C30     18.2682   5.0972  13.2780   C.2       1 RES1   0.0000
  3368 C31     26.3188   5.0972  13.4742   C.2       1 RES1   0.0000
  3369 C32     26.3188   3.8202  13.2780   C.2       1 RES1   0.0000
  3370 C33     31.3090   0.4334   3.8202   C.2       1 RES1   0.0000
  3371 C34     31.1128   0.4334   5.0972   C.2       1 RES1   0.0000
  3372 C35     31.3090   8.4840   5.0972   C.2       1 RES1   0.0000
  3373 C36     31.1128   8.4840   3.8202   C.2       1 RES1   0.0000
  3374 C37     31.8494   4.3606  17.4014   C.2       1 RES1   0.0000
  3375 C38     30.5724   4.5568  17.4014   C.2       1 RES1   0.0000
  3376 C39     30.5724   4.3606   9.3508   C.2       1 RES1   0.0000
  3377 C40     31.8494   4.5568   9.3508   C.2       1 RES1   0.0000
  3378 C41     35.2362  14.0146   4.3606   C.2       1 RES1   0.0000
  3379 C42     35.2362  12.7376   4.5568   C.2       1 RES1   0.0000
  3380 C43     27.1856  12.7376   4.3606   C.2       1 RES1   0.0000
  3381 C44     27.1856  14.0146   4.5568   C.2       1 RES1   0.0000
  3382 C45     22.1954  17.4014  14.0146   C.2       1 RES1   0.0000
  3383 C46     22.3916  17.4014  12.7376   C.2       1 RES1   0.0000
  3384 C47     22.1954   9.3508  12.7376   C.2       1 RES1   0.0000
  3385 C48     22.3916   9.3508  14.0146   C.2       1 RES1   0.0000
  3386 H1      21.3215  14.3427   0.4352   H         1 RES1   0.0000
  3387 H2      23.2655  12.4095   0.4352   H         1 RES1   0.0000
  3388 H3      23.2655  14.3427   8.4822   H         1 RES1   0.0000
  3389 H4      21.3215  12.4095   8.4822   H         1 RES1   0.0000
  3390 H5      18.2700   3.4867  14.3427   H         1 RES1   0.0000
  3391 H6      18.2700   5.4307  12.4095   H         1 RES1   0.0000
  3392 H7      26.3170   5.4307  14.3427   H         1 RES1   0.0000
  3393 H8      26.3170   3.4867  12.4095   H         1 RES1   0.0000
  3394 H9      32.1775   0.4352   3.4867   H         1 RES1   0.0000
  3395 H10     30.2443   0.4352   5.4307   H         1 RES1   0.0000
  3396 H11     32.1775   8.4822   5.4307   H         1 RES1   0.0000
  3397 H12     30.2443   8.4822   3.4867   H         1 RES1   0.0000
  3398 H13     32.1829   3.4921  17.3996   H         1 RES1   0.0000
  3399 H14     30.2389   5.4253  17.3996   H         1 RES1   0.0000
  3400 H15     30.2389   3.4921   9.3526   H         1 RES1   0.0000
  3401 H16     32.1829   5.4253   9.3526   H         1 RES1   0.0000
  3402 H17     35.2344  14.3481   3.4921   H         1 RES1   0.0000
  3403 H18     35.2344  12.4041   5.4253   H         1 RES1   0.0000
  3404 H19     27.1874  12.4041   3.4921   H         1 RES1   0.0000
  3405 H20     27.1874  14.3481   5.4253   H         1 RES1   0.0000
  3406 H21     21.3269  17.3996  14.3481   H         1 RES1   0.0000
  3407 H22     23.2601  17.3996  12.4041   H         1 RES1   0.0000
  3408 H23     21.3269   9.3526  12.4041   H         1 RES1   0.0000
  3409 H24     23.2601   9.3526  14.3481   H         1 RES1   0.0000
  3410 C49     21.2341   6.0603   0.0000   C.2       1 RES1   0.0000
  3411 C50     23.3529   2.8571   0.0000   C.2       1 RES1   0.0000
  3412 C51     23.3529   6.0603   8.9174   C.2       1 RES1   0.0000
  3413 C52     21.2341   2.8571   8.9174   C.2       1 RES1   0.0000
  3414 C53     17.8348   3.3993   6.0603   C.2       1 RES1   0.0000
  3415 C54     17.8348   5.5181   2.8571   C.2       1 RES1   0.0000
  3416 C55     26.7522   5.5181   6.0603   C.2       1 RES1   0.0000
  3417 C56     26.7522   3.3993   2.8571   C.2       1 RES1   0.0000
  3418 C57     23.8951   0.0000   3.3993   C.2       1 RES1   0.0000
  3419 C58     20.6919   0.0000   5.5181   C.2       1 RES1   0.0000
  3420 C59     23.8951   8.9174   5.5181   C.2       1 RES1   0.0000
  3421 C60     20.6919   8.9174   3.3993   C.2       1 RES1   0.0000
  3422 C61     32.2703  11.7745  17.8348   C.2       1 RES1   0.0000
  3423 C62     30.1515  14.9777  17.8348   C.2       1 RES1   0.0000
  3424 C63     30.1515  11.7745   8.9174   C.2       1 RES1   0.0000
  3425 C64     32.2703  14.9777   8.9174   C.2       1 RES1   0.0000
  3426 C65     35.6696  14.4355  11.7745   C.2       1 RES1   0.0000
  3427 C66     35.6696  12.3167  14.9777   C.2       1 RES1   0.0000
  3428 C67     26.7522  12.3167  11.7745   C.2       1 RES1   0.0000
  3429 C68     26.7522  14.4355  14.9777   C.2       1 RES1   0.0000
  3430 C69     29.6093  17.8348  14.4355   C.2       1 RES1   0.0000
  3431 C70     32.8125  17.8348  12.3167   C.2       1 RES1   0.0000
  3432 C71     29.6093   8.9174  12.3167   C.2       1 RES1   0.0000
  3433 C72     32.8125   8.9174  14.4355   C.2       1 RES1   0.0000
  3434 C73     22.4130   5.1097   0.0018   C.2       1 RES1   0.0000
  3435 C74     22.1740   3.8077   0.0018   C.2       1 RES1   0.0000
  3436 C75     22.1740   5.1097   8.9156   C.2       1 RES1   0.0000
  3437 C76     22.4130   3.8077   8.9156   C.2       1 RES1   0.0000
  3438 C77     17.8366   4.5782   5.1097   C.2       1 RES1   0.0000
  3439 C78     17.8366   4.3392   3.8077   C.2       1 RES1   0.0000
  3440 C79     26.7504   4.3392   5.1097   C.2       1 RES1   0.0000
  3441 C80     26.7504   4.5782   3.8077   C.2       1 RES1   0.0000
  3442 C81     22.9445   0.0018   4.5782   C.2       1 RES1   0.0000
  3443 C82     21.6425   0.0018   4.3392   C.2       1 RES1   0.0000
  3444 C83     22.9445   8.9156   4.3392   C.2       1 RES1   0.0000
  3445 C84     21.6425   8.9156   4.5782   C.2       1 RES1   0.0000
  3446 C85     31.0914  12.7251  17.8330   C.2       1 RES1   0.0000
  3447 C86     31.3304  14.0271  17.8330   C.2       1 RES1   0.0000
  3448 C87     31.3304  12.7251   8.9192   C.2       1 RES1   0.0000
  3449 C88     31.0914  14.0271   8.9192   C.2       1 RES1   0.0000
  3450 C89     35.6678  13.2566  12.7251   C.2       1 RES1   0.0000
  3451 C90     35.6678  13.4956  14.0271   C.2       1 RES1   0.0000
  3452 C91     26.7540  13.4956  12.7251   C.2       1 RES1   0.0000
  3453 C92     26.7540  13.2566  14.0271   C.2       1 RES1   0.0000
  3454 C93     30.5599  17.8330  13.2566   C.2       1 RES1   0.0000
  3455 C94     31.8619  17.8330  13.4956   C.2       1 RES1   0.0000
  3456 C95     30.5599   8.9192  13.4956   C.2       1 RES1   0.0000
  3457 C96     31.8619   8.9192  13.2566   C.2       1 RES1   0.0000
  3458 H25     23.2851   5.4325   0.0018   H         1 RES1   0.0000
  3459 H26     21.3019   3.4849   0.0018   H         1 RES1   0.0000
  3460 H27     21.3019   5.4325   8.9156   H         1 RES1   0.0000
  3461 H28     23.2851   3.4849   8.9156   H         1 RES1   0.0000
  3462 H29     17.8366   5.4503   5.4325   H         1 RES1   0.0000
  3463 H30     17.8366   3.4671   3.4849   H         1 RES1   0.0000
  3464 H31     26.7504   3.4671   5.4325   H         1 RES1   0.0000
  3465 H32     26.7504   5.4503   3.4849   H         1 RES1   0.0000
  3466 H33     23.2673   0.0018   5.4503   H         1 RES1   0.0000
  3467 H34     21.3197   0.0018   3.4671   H         1 RES1   0.0000
  3468 H35     23.2673   8.9156   3.4671   H         1 RES1   0.0000
  3469 H36     21.3197   8.9156   5.4503   H         1 RES1   0.0000
  3470 H37     30.2193  12.4023  17.8330   H         1 RES1   0.0000
  3471 H38     32.2025  14.3499  17.8330   H         1 RES1   0.0000
  3472 H39     32.2025  12.4023   8.9192   H         1 RES1   0.0000
  3473 H40     30.2193  14.3499   8.9192   H         1 RES1   0.0000
  3474 H41     35.6678  12.3845  12.4023   H         1 RES1   0.0000
  3475 H42     35.6678  14.3677  14.3499   H         1 RES1   0.0000
  3476 H43     26.7540  14.3677  12.4023   H         1 RES1   0.0000
  3477 H44     26.7540  12.3845  14.3499   H         1 RES1   0.0000
  3478 H45     30.2371  17.8330  12.3845   H         1 RES1   0.0000
  3479 H46     32.1847  17.8330  14.3677   H         1 RES1   0.0000
  3480 H47     30.2371   8.9192  14.3677   H         1 RES1   0.0000
  3481 H48     32.1847   8.9192  12.3845   H         1 RES1   0.0000
  3482 O98     25.3878  16.1993  16.6809   O3        1 RES1   0.0000
  3483 O99     25.3878  10.5529  10.0713   O3        1 RES1   0.0000
  3484 O101    34.5157   1.3644  10.5529   O3        1 RES1   0.0000
  3485 O102    34.5157   7.5530  16.1993   O3        1 RES1   0.0000
  3486 O103    27.9061   7.5530  10.5529   O3        1 RES1   0.0000
  3487 O104    27.9061   1.3644  16.1993   O3        1 RES1   0.0000
  3488 O105    28.3877  16.6809   1.3644   O3        1 RES1   0.0000
  3489 O106    34.0341  16.6809   7.5530   O3        1 RES1   0.0000
  3490 O107    28.3877  10.0713   7.5530   O3        1 RES1   0.0000
  3491 O108    34.0341  10.0713   1.3644   O3        1 RES1   0.0000
  3492 O109    34.3052   7.2819   1.1539   O3        1 RES1   0.0000
  3493 O110    28.1166   1.6355   1.1539   O3        1 RES1   0.0000
  3494 O111    28.1166   7.2819   7.7635   O3        1 RES1   0.0000
  3495 O112    34.3052   1.6355   7.7635   O3        1 RES1   0.0000
  3496 O115    25.5983  10.2818   7.2819   O3        1 RES1   0.0000
  3497 O116    25.5983  16.4704   1.6355   O3        1 RES1   0.0000
  3498 O117    25.1167   1.1539  16.4704   O3        1 RES1   0.0000
  3499 O118    19.4703   1.1539  10.2818   O3        1 RES1   0.0000
  3500 O119    25.1167   7.7635  10.2818   O3        1 RES1   0.0000
  3501 O154    25.3522   1.4000   1.4000   O3        1 RES1   0.0000
  3502 O155    25.3522   7.5174   7.5174   O3        1 RES1   0.0000
  3503 O157    34.2696  10.3174  16.4348   O3        1 RES1   0.0000
  3504 O158    28.1522  16.4348  16.4348   O3        1 RES1   0.0000
  3505 O159    28.1522  10.3174  10.3174   O3        1 RES1   0.0000
  3506 O160    34.2696  16.4348  10.3174   O3        1 RES1   0.0000
  3507 Zr1     38.1281   9.1159   0.2119   Zr        1 RES1   0.0000
  3508 Zr2     24.2937  -0.1985   0.2119   Zr        1 RES1   0.0000
  3509 Zr2     24.2937  -0.1985  18.0467   Zr        1 RES1   0.0000
  3510 Zr2     24.2937  17.6363  18.0467   Zr        1 RES1   0.0000
  3511 Zr4     38.1281  -0.1985   8.7055   Zr        1 RES1   0.0000
  3512 Zr4     38.1281  17.6363   8.7055   Zr        1 RES1   0.0000
  3513 Zr5     35.8815   2.4585   9.1159   Zr        1 RES1   0.0000
  3514 Zr6     35.8815   6.4589  -0.1985   Zr        1 RES1   0.0000
  3515 Zr6     35.8815   6.4589  17.6363   Zr        1 RES1   0.0000
  3516 Zr8     26.5403   2.4585  -0.1985   Zr        1 RES1   0.0000
  3517 Zr8     26.5403  20.2933  -0.1985   Zr        1 RES1   0.0000
  3518 Zr8     26.5403  20.2933  17.6363   Zr        1 RES1   0.0000
  3519 Zr9     26.9507   0.2119  20.2933   Zr        1 RES1   0.0000
  3520 Zr9     26.9507  18.0467   2.4585   Zr        1 RES1   0.0000
  3521 Zr10    35.4711  18.0467   6.4589   Zr        1 RES1   0.0000
  3522 Zr12    35.4711   8.7055  20.2933   Zr        1 RES1   0.0000
  3523 Zr13    33.2111   8.7189  -0.2119   Zr        1 RES1   0.0000
  3524 Zr14    29.2107   0.1985  -0.2119   Zr        1 RES1   0.0000
  3525 Zr14    29.2107  18.0333  -0.2119   Zr        1 RES1   0.0000
  3526 Zr14    29.2107  18.0333  17.6229   Zr        1 RES1   0.0000
  3527 Zr16    33.2111  18.0333   9.1293   Zr        1 RES1   0.0000
  3528 Zr17    35.4577  -2.4585   8.7189   Zr        1 RES1   0.0000
  3529 Zr18    35.4577  11.3759  18.0333   Zr        1 RES1   0.0000
  3530 Zr20    26.9641  -2.4585   0.1985   Zr        1 RES1   0.0000
  3531 Zr20    26.9641  -2.4585  18.0333   Zr        1 RES1   0.0000
  3532 Zr20    26.9641  15.3763  18.0333   Zr        1 RES1   0.0000
  3533 Zr21    26.5537  -0.2119  15.3763   Zr        1 RES1   0.0000
  3534 Zr21    26.5537  17.6229  -2.4585   Zr        1 RES1   0.0000
  3535 Zr22    35.8681  -0.2119  11.3759   Zr        1 RES1   0.0000
  3536 Zr22    35.8681  17.6229  11.3759   Zr        1 RES1   0.0000
  3537 Zr24    35.8681   9.1293  -2.4585   Zr        1 RES1   0.0000
  3538 Zr24    35.8681   9.1293  15.3763   Zr        1 RES1   0.0000
  3539 O2      23.0247  19.4667   0.1427   Oco2      1 RES1   0.0000
  3540 O4      21.5623  19.4667   8.7747   Oco2      1 RES1   0.0000
  3541 O6      17.9775   5.1899  19.4667   Oco2      1 RES1   0.0000
  3542 O8      26.6095   3.7275  19.4667   Oco2      1 RES1   0.0000
  3543 O10     37.3015   0.1427   5.1899   Oco2      1 RES1   0.0000
  3544 O12     37.3015   8.7747   3.7275   Oco2      1 RES1   0.0000
  3545 O14     30.4797  -1.6319  17.6921   O.2       1 RES1   0.0000
  3546 O16     31.9421  -1.6319   9.0601   O.2       1 RES1   0.0000
  3547 O18     35.5269  12.6449  -1.6319   O.2       1 RES1   0.0000
  3548 O20     26.8949  14.1073  -1.6319   O.2       1 RES1   0.0000
  3549 O50     23.3707  17.7046   2.2525   Oco2      1 RES1   0.0000
  3550 O52     21.2163  17.7046   6.6649   Oco2      1 RES1   0.0000
  3551 O54     20.0873   5.5359  17.7046   Oco2      1 RES1   0.0000
  3552 O56     24.4997   3.3815  17.7046   Oco2      1 RES1   0.0000
  3553 O58     35.5394   2.2525   5.5359   Oco2      1 RES1   0.0000
  3554 O60     35.5394   6.6649   3.3815   Oco2      1 RES1   0.0000
  3555 O62     30.1337   0.1302  15.5823   O.2       1 RES1   0.0000
  3556 O64     32.2881   0.1302  11.1699   O.2       1 RES1   0.0000
  3557 O66     33.4171  12.2989   0.1302   O.2       1 RES1   0.0000
  3558 O68     29.0047  14.4533   0.1302   O.2       1 RES1   0.0000
  3559 O73     21.5587   9.3437  -1.6158   O.2       1 RES1   0.0000
  3560 O74     23.0283  17.4085  -1.6158   O.2       1 RES1   0.0000
  3561 O81     27.1785  -1.6158   3.7239   O.2       1 RES1   0.0000
  3562 O82     35.2433  -1.6158   5.1935   O.2       1 RES1   0.0000
  3563 O85     31.9457   8.4911  19.4506   Oco2      1 RES1   0.0000
  3564 O86     30.4761   0.4263  19.4506   Oco2      1 RES1   0.0000
  3565 O89     37.2854  14.1109   8.4911   Oco2      1 RES1   0.0000
  3566 O90     37.2854  12.6413   0.4263   Oco2      1 RES1   0.0000
  3567 O93     26.3259  19.4506  14.1109   Oco2      1 RES1   0.0000
  3568 O94     18.2611  19.4506  12.6413   Oco2      1 RES1   0.0000
  3569 O97     37.0340  10.5529  -1.1539   O3        1 RES1   0.0000
  3570 O98     25.3878  16.1993  -1.1539   O3        1 RES1   0.0000
  3571 O100    37.0340  16.1993  10.0713   O3        1 RES1   0.0000
  3572 O104    27.9061  19.1992  16.1993   O3        1 RES1   0.0000
  3573 O105    28.3877  -1.1539   1.3644   O3        1 RES1   0.0000
  3574 O105    28.3877  -1.1539  19.1992   O3        1 RES1   0.0000
  3575 O106    34.0341  -1.1539   7.5530   O3        1 RES1   0.0000
  3576 O108    34.0341  10.0713  19.1992   O3        1 RES1   0.0000
  3577 O109    34.3052   7.2819  18.9887   O3        1 RES1   0.0000
  3578 O110    28.1166   1.6355  18.9887   O3        1 RES1   0.0000
  3579 O113    36.8235  -1.3644   7.2819   O3        1 RES1   0.0000
  3580 O113    36.8235  16.4704   7.2819   O3        1 RES1   0.0000
  3581 O114    36.8235  10.2818   1.6355   O3        1 RES1   0.0000
  3582 O116    25.5983  -1.3644   1.6355   O3        1 RES1   0.0000
  3583 O117    25.1167  18.9887  -1.3644   O3        1 RES1   0.0000
  3584 O117    25.1167  18.9887  16.4704   O3        1 RES1   0.0000
  3585 O118    19.4703  18.9887  10.2818   O3        1 RES1   0.0000
  3586 O120    19.4703   7.7635  -1.3644   O3        1 RES1   0.0000
  3587 O153    37.0696   7.5174   1.4000   O3        1 RES1   0.0000
  3588 O154    25.3522   1.4000  19.2348   O3        1 RES1   0.0000
  3589 O154    25.3522  19.2348   1.4000   O3        1 RES1   0.0000
  3590 O156    37.0696   1.4000   7.5174   O3        1 RES1   0.0000
  3591 O157    34.2696  10.3174  -1.4000   O3        1 RES1   0.0000
  3592 O158    28.1522  -1.4000  16.4348   O3        1 RES1   0.0000
  3593 O158    28.1522  16.4348  -1.4000   O3        1 RES1   0.0000
  3594 O160    34.2696  -1.4000  10.3174   O3        1 RES1   0.0000
  3595 Zr3     24.2937   9.1159  26.5403   Zr        1 RES1   0.0000
  3596 Zr7     26.5403   6.4589  26.9507   Zr        1 RES1   0.0000
  3597 Zr8     26.5403   2.4585  35.4711   Zr        1 RES1   0.0000
  3598 Zr10    35.4711   0.2119  24.2937   Zr        1 RES1   0.0000
  3599 Zr11    26.9507   8.7055  24.2937   Zr        1 RES1   0.0000
  3600 Zr13    33.2111   8.7189  35.4577   Zr        1 RES1   0.0000
  3601 Zr14    29.2107   0.1985  35.4577   Zr        1 RES1   0.0000
  3602 Zr15    29.2107   8.7189  26.9641   Zr        1 RES1   0.0000
  3603 Zr16    33.2111   0.1985  26.9641   Zr        1 RES1   0.0000
  3604 Zr17    35.4577  15.3763  26.5537   Zr        1 RES1   0.0000
  3605 Zr19    26.9641  11.3759  26.5537   Zr        1 RES1   0.0000
  3606 Zr21    26.5537  17.6229  33.2111   Zr        1 RES1   0.0000
  3607 Zr23    26.5537   9.1293  29.2107   Zr        1 RES1   0.0000
  3608 O1      21.5623   7.2855  17.9775   Oco2      1 RES1   0.0000
  3609 O2      23.0247   1.6319  17.9775   Oco2      1 RES1   0.0000
  3610 O3      23.0247   7.2855  26.6095   Oco2      1 RES1   0.0000
  3611 O4      21.5623   1.6319  26.6095   Oco2      1 RES1   0.0000
  3612 O5      17.9775   3.7275  25.1203   Oco2      1 RES1   0.0000
  3613 O7      26.6095   5.1899  25.1203   Oco2      1 RES1   0.0000
  3614 O9      25.1203   0.1427  21.5623   Oco2      1 RES1   0.0000
  3615 O11     25.1203   8.7747  23.0247   Oco2      1 RES1   0.0000
  3616 O13     31.9421  10.5493  35.5269   Oco2      1 RES1   0.0000
  3617 O14     30.4797  16.2029  35.5269   Oco2      1 RES1   0.0000
  3618 O15     30.4797  10.5493  26.8949   Oco2      1 RES1   0.0000
  3619 O16     31.9421  16.2029  26.8949   Oco2      1 RES1   0.0000
  3620 O17     35.5269  14.1073  28.3841   Oco2      1 RES1   0.0000
  3621 O18     35.5269  12.6449  34.0377   Oco2      1 RES1   0.0000
  3622 O19     26.8949  12.6449  28.3841   Oco2      1 RES1   0.0000
  3623 O20     26.8949  14.1073  34.0377   Oco2      1 RES1   0.0000
  3624 O21     28.3841  17.6921  31.9421   Oco2      1 RES1   0.0000
  3625 O22     34.0377  17.6921  30.4797   Oco2      1 RES1   0.0000
  3626 O23     28.3841   9.0601  30.4797   Oco2      1 RES1   0.0000
  3627 O24     34.0377   9.0601  31.9421   Oco2      1 RES1   0.0000
  3628 O25     21.2305  11.1396  18.2735   Oco2      1 RES1   0.0000
  3629 O26     23.3565  15.6126  18.2735   Oco2      1 RES1   0.0000
  3630 O27     23.3565  11.1396  26.3135   Oco2      1 RES1   0.0000
  3631 O28     21.2305  15.6126  26.3135   Oco2      1 RES1   0.0000
  3632 O29     18.2735   3.3957  28.9744   Oco2      1 RES1   0.0000
  3633 O30     18.2735   5.5217  33.4474   Oco2      1 RES1   0.0000
  3634 O31     26.3135   5.5217  28.9744   Oco2      1 RES1   0.0000
  3635 O32     26.3135   3.3957  33.4474   Oco2      1 RES1   0.0000
  3636 O33     28.9744   0.4387  21.2305   Oco2      1 RES1   0.0000
  3637 O34     33.4474   0.4387  23.3565   Oco2      1 RES1   0.0000
  3638 O35     28.9744   8.4787  23.3565   Oco2      1 RES1   0.0000
  3639 O36     33.4474   8.4787  21.2305   Oco2      1 RES1   0.0000
  3640 O37     32.2739   6.6952  35.2309   Oco2      1 RES1   0.0000
  3641 O38     30.1479   2.2222  35.2309   Oco2      1 RES1   0.0000
  3642 O39     30.1479   6.6952  27.1909   Oco2      1 RES1   0.0000
  3643 O40     32.2739   2.2222  27.1909   Oco2      1 RES1   0.0000
  3644 O41     35.2309  14.4391  24.5300   Oco2      1 RES1   0.0000
  3645 O42     35.2309  12.3131  20.0570   Oco2      1 RES1   0.0000
  3646 O43     27.1909  12.3131  24.5300   Oco2      1 RES1   0.0000
  3647 O44     27.1909  14.4391  20.0570   Oco2      1 RES1   0.0000
  3648 O45     24.5300  17.3961  32.2739   Oco2      1 RES1   0.0000
  3649 O46     20.0570  17.3961  30.1479   Oco2      1 RES1   0.0000
  3650 O47     24.5300   9.3561  30.1479   Oco2      1 RES1   0.0000
  3651 O48     20.0570   9.3561  32.2739   Oco2      1 RES1   0.0000
  3652 O49     21.2163   9.0476  20.0873   Oco2      1 RES1   0.0000
  3653 O50     23.3707  -0.1302  20.0873   Oco2      1 RES1   0.0000
  3654 O51     23.3707   9.0476  24.4997   Oco2      1 RES1   0.0000
  3655 O52     21.2163  -0.1302  24.4997   Oco2      1 RES1   0.0000
  3656 O53     20.0873   3.3815  26.8824   Oco2      1 RES1   0.0000
  3657 O55     24.4997   5.5359  26.8824   Oco2      1 RES1   0.0000
  3658 O57     26.8824   2.2525  21.2163   Oco2      1 RES1   0.0000
  3659 O59     26.8824   6.6649  23.3707   Oco2      1 RES1   0.0000
  3660 O61     32.2881   8.7872  33.4171   Oco2      1 RES1   0.0000
  3661 O62     30.1337  17.9650  33.4171   Oco2      1 RES1   0.0000
  3662 O63     30.1337   8.7872  29.0047   Oco2      1 RES1   0.0000
  3663 O64     32.2881  17.9650  29.0047   Oco2      1 RES1   0.0000
  3664 O65     33.4171  14.4533  26.6220   Oco2      1 RES1   0.0000
  3665 O66     33.4171  12.2989  35.7998   Oco2      1 RES1   0.0000
  3666 O67     29.0047  12.2989  26.6220   Oco2      1 RES1   0.0000
  3667 O68     29.0047  14.4533  35.7998   Oco2      1 RES1   0.0000
  3668 O69     26.6220  15.5823  32.2881   Oco2      1 RES1   0.0000
  3669 O70     35.7998  15.5823  30.1337   Oco2      1 RES1   0.0000
  3670 O71     26.6220  11.1699  30.1337   Oco2      1 RES1   0.0000
  3671 O72     35.7998  11.1699  32.2881   Oco2      1 RES1   0.0000
  3672 O73     21.5587   9.3437  34.0538   Oco2      1 RES1   0.0000
  3673 O74     23.0283  17.4085  34.0538   Oco2      1 RES1   0.0000
  3674 O75     23.0283   9.3437  28.3680   Oco2      1 RES1   0.0000
  3675 O76     21.5587  17.4085  28.3680   Oco2      1 RES1   0.0000
  3676 O77     34.0538   3.7239  27.1785   Oco2      1 RES1   0.0000
  3677 O78     34.0538   5.1935  35.2433   Oco2      1 RES1   0.0000
  3678 O79     28.3680   5.1935  27.1785   Oco2      1 RES1   0.0000
  3679 O80     28.3680   3.7239  35.2433   Oco2      1 RES1   0.0000
  3680 O81     27.1785  16.2190  21.5587   Oco2      1 RES1   0.0000
  3681 O82     35.2433  16.2190  23.0283   Oco2      1 RES1   0.0000
  3682 O83     27.1785  10.5332  23.0283   Oco2      1 RES1   0.0000
  3683 O84     35.2433  10.5332  21.5587   Oco2      1 RES1   0.0000
  3684 O87     30.4761   8.4911  25.1364   Oco2      1 RES1   0.0000
  3685 O88     31.9457   0.4263  25.1364   Oco2      1 RES1   0.0000
  3686 O91     25.1364  12.6413  26.3259   Oco2      1 RES1   0.0000
  3687 O92     25.1364  14.1109  18.2611   Oco2      1 RES1   0.0000
  3688 O93     26.3259   1.6158  31.9457   Oco2      1 RES1   0.0000
  3689 O94     18.2611   1.6158  30.4761   Oco2      1 RES1   0.0000
  3690 O95     26.3259   7.3016  30.4761   Oco2      1 RES1   0.0000
  3691 O96     18.2611   7.3016  31.9457   Oco2      1 RES1   0.0000
  3692 C1      20.6955  12.2900  18.2628   C.2       1 RES1   0.0000
  3693 C2      23.8915  14.4622  18.2628   C.2       1 RES1   0.0000
  3694 C3      23.8915  12.2900  26.3242   C.2       1 RES1   0.0000
  3695 C4      20.6955  14.4622  26.3242   C.2       1 RES1   0.0000
  3696 C5      18.2628   2.8607  30.1248   C.2       1 RES1   0.0000
  3697 C6      18.2628   6.0567  32.2970   C.2       1 RES1   0.0000
  3698 C7      26.3242   6.0567  30.1248   C.2       1 RES1   0.0000
  3699 C8      26.3242   2.8607  32.2970   C.2       1 RES1   0.0000
  3700 C9      30.1248   0.4280  20.6955   C.2       1 RES1   0.0000
  3701 C10     32.2970   0.4280  23.8915   C.2       1 RES1   0.0000
  3702 C11     30.1248   8.4894  23.8915   C.2       1 RES1   0.0000
  3703 C12     32.2970   8.4894  20.6955   C.2       1 RES1   0.0000
  3704 C13     32.8089   5.5448  35.2416   C.2       1 RES1   0.0000
  3705 C14     29.6129   3.3726  35.2416   C.2       1 RES1   0.0000
  3706 C15     29.6129   5.5448  27.1802   C.2       1 RES1   0.0000
  3707 C16     32.8089   3.3726  27.1802   C.2       1 RES1   0.0000
  3708 C17     35.2416  14.9741  23.3796   C.2       1 RES1   0.0000
  3709 C18     35.2416  11.7781  21.2074   C.2       1 RES1   0.0000
  3710 C19     27.1802  11.7781  23.3796   C.2       1 RES1   0.0000
  3711 C20     27.1802  14.9741  21.2074   C.2       1 RES1   0.0000
  3712 C21     23.3796  17.4068  32.8089   C.2       1 RES1   0.0000
  3713 C22     21.2074  17.4068  29.6129   C.2       1 RES1   0.0000
  3714 C23     23.3796   9.3454  29.6129   C.2       1 RES1   0.0000
  3715 C24     21.2074   9.3454  32.8089   C.2       1 RES1   0.0000
  3716 C25     21.6550  13.4742  18.2682   C.2       1 RES1   0.0000
  3717 C26     22.9320  13.2780  18.2682   C.2       1 RES1   0.0000
  3718 C27     22.9320  13.4742  26.3188   C.2       1 RES1   0.0000
  3719 C28     21.6550  13.2780  26.3188   C.2       1 RES1   0.0000
  3720 C29     18.2682   3.8202  31.3090   C.2       1 RES1   0.0000
  3721 C30     18.2682   5.0972  31.1128   C.2       1 RES1   0.0000
  3722 C31     26.3188   5.0972  31.3090   C.2       1 RES1   0.0000
  3723 C32     26.3188   3.8202  31.1128   C.2       1 RES1   0.0000
  3724 C33     31.3090   0.4334  21.6550   C.2       1 RES1   0.0000
  3725 C34     31.1128   0.4334  22.9320   C.2       1 RES1   0.0000
  3726 C35     31.3090   8.4840  22.9320   C.2       1 RES1   0.0000
  3727 C36     31.1128   8.4840  21.6550   C.2       1 RES1   0.0000
  3728 C37     31.8494   4.3606  35.2362   C.2       1 RES1   0.0000
  3729 C38     30.5724   4.5568  35.2362   C.2       1 RES1   0.0000
  3730 C39     30.5724   4.3606  27.1856   C.2       1 RES1   0.0000
  3731 C40     31.8494   4.5568  27.1856   C.2       1 RES1   0.0000
  3732 C41     35.2362  14.0146  22.1954   C.2       1 RES1   0.0000
  3733 C42     35.2362  12.7376  22.3916   C.2       1 RES1   0.0000
  3734 C43     27.1856  12.7376  22.1954   C.2       1 RES1   0.0000
  3735 C44     27.1856  14.0146  22.3916   C.2       1 RES1   0.0000
  3736 C45     22.1954  17.4014  31.8494   C.2       1 RES1   0.0000
  3737 C46     22.3916  17.4014  30.5724   C.2       1 RES1   0.0000
  3738 C47     22.1954   9.3508  30.5724   C.2       1 RES1   0.0000
  3739 C48     22.3916   9.3508  31.8494   C.2       1 RES1   0.0000
  3740 H1      21.3215  14.3427  18.2700   H         1 RES1   0.0000
  3741 H2      23.2655  12.4095  18.2700   H         1 RES1   0.0000
  3742 H3      23.2655  14.3427  26.3170   H         1 RES1   0.0000
  3743 H4      21.3215  12.4095  26.3170   H         1 RES1   0.0000
  3744 H5      18.2700   3.4867  32.1775   H         1 RES1   0.0000
  3745 H6      18.2700   5.4307  30.2443   H         1 RES1   0.0000
  3746 H7      26.3170   5.4307  32.1775   H         1 RES1   0.0000
  3747 H8      26.3170   3.4867  30.2443   H         1 RES1   0.0000
  3748 H9      32.1775   0.4352  21.3215   H         1 RES1   0.0000
  3749 H10     30.2443   0.4352  23.2655   H         1 RES1   0.0000
  3750 H11     32.1775   8.4822  23.2655   H         1 RES1   0.0000
  3751 H12     30.2443   8.4822  21.3215   H         1 RES1   0.0000
  3752 H13     32.1829   3.4921  35.2344   H         1 RES1   0.0000
  3753 H14     30.2389   5.4253  35.2344   H         1 RES1   0.0000
  3754 H15     30.2389   3.4921  27.1874   H         1 RES1   0.0000
  3755 H16     32.1829   5.4253  27.1874   H         1 RES1   0.0000
  3756 H17     35.2344  14.3481  21.3269   H         1 RES1   0.0000
  3757 H18     35.2344  12.4041  23.2601   H         1 RES1   0.0000
  3758 H19     27.1874  12.4041  21.3269   H         1 RES1   0.0000
  3759 H20     27.1874  14.3481  23.2601   H         1 RES1   0.0000
  3760 H21     21.3269  17.3996  32.1829   H         1 RES1   0.0000
  3761 H22     23.2601  17.3996  30.2389   H         1 RES1   0.0000
  3762 H23     21.3269   9.3526  30.2389   H         1 RES1   0.0000
  3763 H24     23.2601   9.3526  32.1829   H         1 RES1   0.0000
  3764 C49     21.2341   6.0603  17.8348   C.2       1 RES1   0.0000
  3765 C50     23.3529   2.8571  17.8348   C.2       1 RES1   0.0000
  3766 C51     23.3529   6.0603  26.7522   C.2       1 RES1   0.0000
  3767 C52     21.2341   2.8571  26.7522   C.2       1 RES1   0.0000
  3768 C53     17.8348   3.3993  23.8951   C.2       1 RES1   0.0000
  3769 C54     17.8348   5.5181  20.6919   C.2       1 RES1   0.0000
  3770 C55     26.7522   5.5181  23.8951   C.2       1 RES1   0.0000
  3771 C56     26.7522   3.3993  20.6919   C.2       1 RES1   0.0000
  3772 C57     23.8951   0.0000  21.2341   C.2       1 RES1   0.0000
  3773 C58     20.6919   0.0000  23.3529   C.2       1 RES1   0.0000
  3774 C59     23.8951   8.9174  23.3529   C.2       1 RES1   0.0000
  3775 C60     20.6919   8.9174  21.2341   C.2       1 RES1   0.0000
  3776 C61     32.2703  11.7745  35.6696   C.2       1 RES1   0.0000
  3777 C62     30.1515  14.9777  35.6696   C.2       1 RES1   0.0000
  3778 C63     30.1515  11.7745  26.7522   C.2       1 RES1   0.0000
  3779 C64     32.2703  14.9777  26.7522   C.2       1 RES1   0.0000
  3780 C65     35.6696  14.4355  29.6093   C.2       1 RES1   0.0000
  3781 C66     35.6696  12.3167  32.8125   C.2       1 RES1   0.0000
  3782 C67     26.7522  12.3167  29.6093   C.2       1 RES1   0.0000
  3783 C68     26.7522  14.4355  32.8125   C.2       1 RES1   0.0000
  3784 C69     29.6093  17.8348  32.2703   C.2       1 RES1   0.0000
  3785 C70     32.8125  17.8348  30.1515   C.2       1 RES1   0.0000
  3786 C71     29.6093   8.9174  30.1515   C.2       1 RES1   0.0000
  3787 C72     32.8125   8.9174  32.2703   C.2       1 RES1   0.0000
  3788 C73     22.4130   5.1097  17.8366   C.2       1 RES1   0.0000
  3789 C74     22.1740   3.8077  17.8366   C.2       1 RES1   0.0000
  3790 C75     22.1740   5.1097  26.7504   C.2       1 RES1   0.0000
  3791 C76     22.4130   3.8077  26.7504   C.2       1 RES1   0.0000
  3792 C77     17.8366   4.5782  22.9445   C.2       1 RES1   0.0000
  3793 C78     17.8366   4.3392  21.6425   C.2       1 RES1   0.0000
  3794 C79     26.7504   4.3392  22.9445   C.2       1 RES1   0.0000
  3795 C80     26.7504   4.5782  21.6425   C.2       1 RES1   0.0000
  3796 C81     22.9445   0.0018  22.4130   C.2       1 RES1   0.0000
  3797 C82     21.6425   0.0018  22.1740   C.2       1 RES1   0.0000
  3798 C83     22.9445   8.9156  22.1740   C.2       1 RES1   0.0000
  3799 C84     21.6425   8.9156  22.4130   C.2       1 RES1   0.0000
  3800 C85     31.0914  12.7251  35.6678   C.2       1 RES1   0.0000
  3801 C86     31.3304  14.0271  35.6678   C.2       1 RES1   0.0000
  3802 C87     31.3304  12.7251  26.7540   C.2       1 RES1   0.0000
  3803 C88     31.0914  14.0271  26.7540   C.2       1 RES1   0.0000
  3804 C89     35.6678  13.2566  30.5599   C.2       1 RES1   0.0000
  3805 C90     35.6678  13.4956  31.8619   C.2       1 RES1   0.0000
  3806 C91     26.7540  13.4956  30.5599   C.2       1 RES1   0.0000
  3807 C92     26.7540  13.2566  31.8619   C.2       1 RES1   0.0000
  3808 C93     30.5599  17.8330  31.0914   C.2       1 RES1   0.0000
  3809 C94     31.8619  17.8330  31.3304   C.2       1 RES1   0.0000
  3810 C95     30.5599   8.9192  31.3304   C.2       1 RES1   0.0000
  3811 C96     31.8619   8.9192  31.0914   C.2       1 RES1   0.0000
  3812 H25     23.2851   5.4325  17.8366   H         1 RES1   0.0000
  3813 H26     21.3019   3.4849  17.8366   H         1 RES1   0.0000
  3814 H27     21.3019   5.4325  26.7504   H         1 RES1   0.0000
  3815 H28     23.2851   3.4849  26.7504   H         1 RES1   0.0000
  3816 H29     17.8366   5.4503  23.2673   H         1 RES1   0.0000
  3817 H30     17.8366   3.4671  21.3197   H         1 RES1   0.0000
  3818 H31     26.7504   3.4671  23.2673   H         1 RES1   0.0000
  3819 H32     26.7504   5.4503  21.3197   H         1 RES1   0.0000
  3820 H33     23.2673   0.0018  23.2851   H         1 RES1   0.0000
  3821 H34     21.3197   0.0018  21.3019   H         1 RES1   0.0000
  3822 H35     23.2673   8.9156  21.3019   H         1 RES1   0.0000
  3823 H36     21.3197   8.9156  23.2851   H         1 RES1   0.0000
  3824 H37     30.2193  12.4023  35.6678   H         1 RES1   0.0000
  3825 H38     32.2025  14.3499  35.6678   H         1 RES1   0.0000
  3826 H39     32.2025  12.4023  26.7540   H         1 RES1   0.0000
  3827 H40     30.2193  14.3499  26.7540   H         1 RES1   0.0000
  3828 H41     35.6678  12.3845  30.2371   H         1 RES1   0.0000
  3829 H42     35.6678  14.3677  32.1847   H         1 RES1   0.0000
  3830 H43     26.7540  14.3677  30.2371   H         1 RES1   0.0000
  3831 H44     26.7540  12.3845  32.1847   H         1 RES1   0.0000
  3832 H45     30.2371  17.8330  30.2193   H         1 RES1   0.0000
  3833 H46     32.1847  17.8330  32.2025   H         1 RES1   0.0000
  3834 H47     30.2371   8.9192  32.2025   H         1 RES1   0.0000
  3835 H48     32.1847   8.9192  30.2193   H         1 RES1   0.0000
  3836 O98     25.3878  16.1993  34.5157   O3        1 RES1   0.0000
  3837 O99     25.3878  10.5529  27.9061   O3        1 RES1   0.0000
  3838 O101    34.5157   1.3644  28.3877   O3        1 RES1   0.0000
  3839 O102    34.5157   7.5530  34.0341   O3        1 RES1   0.0000
  3840 O103    27.9061   7.5530  28.3877   O3        1 RES1   0.0000
  3841 O104    27.9061   1.3644  34.0341   O3        1 RES1   0.0000
  3842 O105    28.3877  16.6809  19.1992   O3        1 RES1   0.0000
  3843 O106    34.0341  16.6809  25.3878   O3        1 RES1   0.0000
  3844 O107    28.3877  10.0713  25.3878   O3        1 RES1   0.0000
  3845 O111    28.1166   7.2819  25.5983   O3        1 RES1   0.0000
  3846 O112    34.3052   1.6355  25.5983   O3        1 RES1   0.0000
  3847 O115    25.5983  10.2818  25.1167   O3        1 RES1   0.0000
  3848 O116    25.5983  16.4704  19.4703   O3        1 RES1   0.0000
  3849 O117    25.1167   1.1539  34.3052   O3        1 RES1   0.0000
  3850 O118    19.4703   1.1539  28.1166   O3        1 RES1   0.0000
  3851 O119    25.1167   7.7635  28.1166   O3        1 RES1   0.0000
  3852 O155    25.3522   7.5174  25.3522   O3        1 RES1   0.0000
  3853 O157    34.2696  10.3174  34.2696   O3        1 RES1   0.0000
  3854 O158    28.1522  16.4348  34.2696   O3        1 RES1   0.0000
  3855 O159    28.1522  10.3174  28.1522   O3        1 RES1   0.0000
  3856 O160    34.2696  16.4348  28.1522   O3        1 RES1   0.0000
  3857 Zr1     38.1281   9.1159  18.0467   Zr        1 RES1   0.0000
  3858 Zr2     24.2937  -0.1985  35.8815   Zr        1 RES1   0.0000
  3859 Zr2     24.2937  17.6363  35.8815   Zr        1 RES1   0.0000
  3860 Zr4     38.1281  -0.1985  26.5403   Zr        1 RES1   0.0000
  3861 Zr4     38.1281  17.6363  26.5403   Zr        1 RES1   0.0000
  3862 Zr5     35.8815   2.4585  26.9507   Zr        1 RES1   0.0000
  3863 Zr6     35.8815   6.4589  35.4711   Zr        1 RES1   0.0000
  3864 Zr8     26.5403  20.2933  35.4711   Zr        1 RES1   0.0000
  3865 Zr9     26.9507   0.2119  38.1281   Zr        1 RES1   0.0000
  3866 Zr9     26.9507  18.0467  20.2933   Zr        1 RES1   0.0000
  3867 Zr10    35.4711  18.0467  24.2937   Zr        1 RES1   0.0000
  3868 Zr12    35.4711   8.7055  38.1281   Zr        1 RES1   0.0000
  3869 Zr14    29.2107  18.0333  35.4577   Zr        1 RES1   0.0000
  3870 Zr16    33.2111  18.0333  26.9641   Zr        1 RES1   0.0000
  3871 Zr17    35.4577  -2.4585  26.5537   Zr        1 RES1   0.0000
  3872 Zr18    35.4577  11.3759  35.8681   Zr        1 RES1   0.0000
  3873 Zr20    26.9641  -2.4585  35.8681   Zr        1 RES1   0.0000
  3874 Zr20    26.9641  15.3763  35.8681   Zr        1 RES1   0.0000
  3875 Zr21    26.5537  -0.2119  33.2111   Zr        1 RES1   0.0000
  3876 Zr22    35.8681  -0.2119  29.2107   Zr        1 RES1   0.0000
  3877 Zr22    35.8681  17.6229  29.2107   Zr        1 RES1   0.0000
  3878 Zr24    35.8681   9.1293  33.2111   Zr        1 RES1   0.0000
  3879 O2      23.0247  19.4667  17.9775   Oco2      1 RES1   0.0000
  3880 O4      21.5623  19.4667  26.6095   Oco2      1 RES1   0.0000
  3881 O6      17.9775   5.1899  37.3015   Oco2      1 RES1   0.0000
  3882 O8      26.6095   3.7275  37.3015   Oco2      1 RES1   0.0000
  3883 O10     37.3015   0.1427  23.0247   Oco2      1 RES1   0.0000
  3884 O12     37.3015   8.7747  21.5623   Oco2      1 RES1   0.0000
  3885 O14     30.4797  -1.6319  35.5269   O.2       1 RES1   0.0000
  3886 O16     31.9421  -1.6319  26.8949   O.2       1 RES1   0.0000
  3887 O50     23.3707  17.7046  20.0873   Oco2      1 RES1   0.0000
  3888 O52     21.2163  17.7046  24.4997   Oco2      1 RES1   0.0000
  3889 O54     20.0873   5.5359  35.5394   Oco2      1 RES1   0.0000
  3890 O56     24.4997   3.3815  35.5394   Oco2      1 RES1   0.0000
  3891 O58     35.5394   2.2525  23.3707   Oco2      1 RES1   0.0000
  3892 O60     35.5394   6.6649  21.2163   Oco2      1 RES1   0.0000
  3893 O62     30.1337   0.1302  33.4171   O.2       1 RES1   0.0000
  3894 O64     32.2881   0.1302  29.0047   O.2       1 RES1   0.0000
  3895 O81     27.1785  -1.6158  21.5587   O.2       1 RES1   0.0000
  3896 O82     35.2433  -1.6158  23.0283   O.2       1 RES1   0.0000
  3897 O85     31.9457   8.4911  37.2854   Oco2      1 RES1   0.0000
  3898 O86     30.4761   0.4263  37.2854   Oco2      1 RES1   0.0000
  3899 O89     37.2854  14.1109  26.3259   Oco2      1 RES1   0.0000
  3900 O90     37.2854  12.6413  18.2611   Oco2      1 RES1   0.0000
  3901 O93     26.3259  19.4506  31.9457   Oco2      1 RES1   0.0000
  3902 O94     18.2611  19.4506  30.4761   Oco2      1 RES1   0.0000
  3903 O97     37.0340  10.5529  16.6809   O3        1 RES1   0.0000
  3904 O100    37.0340  16.1993  27.9061   O3        1 RES1   0.0000
  3905 O104    27.9061  19.1992  34.0341   O3        1 RES1   0.0000
  3906 O105    28.3877  -1.1539  37.0340   O3        1 RES1   0.0000
  3907 O106    34.0341  -1.1539  25.3878   O3        1 RES1   0.0000
  3908 O108    34.0341  10.0713  37.0340   O3        1 RES1   0.0000
  3909 O109    34.3052   7.2819  36.8235   O3        1 RES1   0.0000
  3910 O110    28.1166   1.6355  36.8235   O3        1 RES1   0.0000
  3911 O113    36.8235  -1.3644  25.1167   O3        1 RES1   0.0000
  3912 O113    36.8235  16.4704  25.1167   O3        1 RES1   0.0000
  3913 O114    36.8235  10.2818  19.4703   O3        1 RES1   0.0000
  3914 O116    25.5983  -1.3644  19.4703   O3        1 RES1   0.0000
  3915 O117    25.1167  18.9887  34.3052   O3        1 RES1   0.0000
  3916 O118    19.4703  18.9887  28.1166   O3        1 RES1   0.0000
  3917 O120    19.4703   7.7635  16.4704   O3        1 RES1   0.0000
  3918 O153    37.0696   7.5174  19.2348   O3        1 RES1   0.0000
  3919 O154    25.3522   1.4000  37.0696   O3        1 RES1   0.0000
  3920 O154    25.3522  19.2348  19.2348   O3        1 RES1   0.0000
  3921 O156    37.0696   1.4000  25.3522   O3        1 RES1   0.0000
  3922 O158    28.1522  -1.4000  34.2696   O3        1 RES1   0.0000
  3923 O160    34.2696  -1.4000  28.1522   O3        1 RES1   0.0000
  3924 Zr3     24.2937   9.1159  44.3751   Zr        1 RES1   0.0000
  3925 Zr7     26.5403   6.4589  44.7855   Zr        1 RES1   0.0000
  3926 Zr8     26.5403   2.4585  53.3059   Zr        1 RES1   0.0000
  3927 Zr10    35.4711   0.2119  42.1285   Zr        1 RES1   0.0000
  3928 Zr11    26.9507   8.7055  42.1285   Zr        1 RES1   0.0000
  3929 Zr13    33.2111   8.7189  53.2925   Zr        1 RES1   0.0000
  3930 Zr14    29.2107   0.1985  53.2925   Zr        1 RES1   0.0000
  3931 Zr15    29.2107   8.7189  44.7989   Zr        1 RES1   0.0000
  3932 Zr16    33.2111   0.1985  44.7989   Zr        1 RES1   0.0000
  3933 Zr17    35.4577  15.3763  44.3885   Zr        1 RES1   0.0000
  3934 Zr19    26.9641  11.3759  44.3885   Zr        1 RES1   0.0000
  3935 Zr21    26.5537  17.6229  51.0459   Zr        1 RES1   0.0000
  3936 Zr23    26.5537   9.1293  47.0455   Zr        1 RES1   0.0000
  3937 O1      21.5623   7.2855  35.8123   Oco2      1 RES1   0.0000
  3938 O2      23.0247   1.6319  35.8123   Oco2      1 RES1   0.0000
  3939 O3      23.0247   7.2855  44.4443   Oco2      1 RES1   0.0000
  3940 O4      21.5623   1.6319  44.4443   Oco2      1 RES1   0.0000
  3941 O5      17.9775   3.7275  42.9551   Oco2      1 RES1   0.0000
  3942 O7      26.6095   5.1899  42.9551   Oco2      1 RES1   0.0000
  3943 O9      25.1203   0.1427  39.3971   Oco2      1 RES1   0.0000
  3944 O11     25.1203   8.7747  40.8595   Oco2      1 RES1   0.0000
  3945 O13     31.9421  10.5493  53.3617   Oco2      1 RES1   0.0000
  3946 O14     30.4797  16.2029  53.3617   Oco2      1 RES1   0.0000
  3947 O15     30.4797  10.5493  44.7297   Oco2      1 RES1   0.0000
  3948 O16     31.9421  16.2029  44.7297   Oco2      1 RES1   0.0000
  3949 O17     35.5269  14.1073  46.2189   Oco2      1 RES1   0.0000
  3950 O18     35.5269  12.6449  51.8725   Oco2      1 RES1   0.0000
  3951 O19     26.8949  12.6449  46.2189   Oco2      1 RES1   0.0000
  3952 O20     26.8949  14.1073  51.8725   Oco2      1 RES1   0.0000
  3953 O21     28.3841  17.6921  49.7769   Oco2      1 RES1   0.0000
  3954 O22     34.0377  17.6921  48.3145   Oco2      1 RES1   0.0000
  3955 O23     28.3841   9.0601  48.3145   Oco2      1 RES1   0.0000
  3956 O24     34.0377   9.0601  49.7769   Oco2      1 RES1   0.0000
  3957 O25     21.2305  11.1396  36.1083   Oco2      1 RES1   0.0000
  3958 O26     23.3565  15.6126  36.1083   Oco2      1 RES1   0.0000
  3959 O27     23.3565  11.1396  44.1483   Oco2      1 RES1   0.0000
  3960 O28     21.2305  15.6126  44.1483   Oco2      1 RES1   0.0000
  3961 O29     18.2735   3.3957  46.8092   Oco2      1 RES1   0.0000
  3962 O30     18.2735   5.5217  51.2822   Oco2      1 RES1   0.0000
  3963 O31     26.3135   5.5217  46.8092   Oco2      1 RES1   0.0000
  3964 O32     26.3135   3.3957  51.2822   Oco2      1 RES1   0.0000
  3965 O33     28.9744   0.4387  39.0653   Oco2      1 RES1   0.0000
  3966 O34     33.4474   0.4387  41.1913   Oco2      1 RES1   0.0000
  3967 O35     28.9744   8.4787  41.1913   Oco2      1 RES1   0.0000
  3968 O36     33.4474   8.4787  39.0653   Oco2      1 RES1   0.0000
  3969 O37     32.2739   6.6952  53.0657   Oco2      1 RES1   0.0000
  3970 O38     30.1479   2.2222  53.0657   Oco2      1 RES1   0.0000
  3971 O39     30.1479   6.6952  45.0257   Oco2      1 RES1   0.0000
  3972 O40     32.2739   2.2222  45.0257   Oco2      1 RES1   0.0000
  3973 O41     35.2309  14.4391  42.3648   Oco2      1 RES1   0.0000
  3974 O42     35.2309  12.3131  37.8918   Oco2      1 RES1   0.0000
  3975 O43     27.1909  12.3131  42.3648   Oco2      1 RES1   0.0000
  3976 O44     27.1909  14.4391  37.8918   Oco2      1 RES1   0.0000
  3977 O45     24.5300  17.3961  50.1087   Oco2      1 RES1   0.0000
  3978 O46     20.0570  17.3961  47.9827   Oco2      1 RES1   0.0000
  3979 O47     24.5300   9.3561  47.9827   Oco2      1 RES1   0.0000
  3980 O48     20.0570   9.3561  50.1087   Oco2      1 RES1   0.0000
  3981 O49     21.2163   9.0476  37.9221   Oco2      1 RES1   0.0000
  3982 O50     23.3707  -0.1302  37.9221   Oco2      1 RES1   0.0000
  3983 O51     23.3707   9.0476  42.3345   Oco2      1 RES1   0.0000
  3984 O52     21.2163  -0.1302  42.3345   Oco2      1 RES1   0.0000
  3985 O53     20.0873   3.3815  44.7172   Oco2      1 RES1   0.0000
  3986 O55     24.4997   5.5359  44.7172   Oco2      1 RES1   0.0000
  3987 O57     26.8824   2.2525  39.0511   Oco2      1 RES1   0.0000
  3988 O59     26.8824   6.6649  41.2055   Oco2      1 RES1   0.0000
  3989 O61     32.2881   8.7872  51.2519   Oco2      1 RES1   0.0000
  3990 O62     30.1337  17.9650  51.2519   Oco2      1 RES1   0.0000
  3991 O63     30.1337   8.7872  46.8395   Oco2      1 RES1   0.0000
  3992 O64     32.2881  17.9650  46.8395   Oco2      1 RES1   0.0000
  3993 O65     33.4171  14.4533  44.4568   Oco2      1 RES1   0.0000
  3994 O66     33.4171  12.2989  53.6346   Oco2      1 RES1   0.0000
  3995 O67     29.0047  12.2989  44.4568   Oco2      1 RES1   0.0000
  3996 O68     29.0047  14.4533  53.6346   Oco2      1 RES1   0.0000
  3997 O69     26.6220  15.5823  50.1229   Oco2      1 RES1   0.0000
  3998 O70     35.7998  15.5823  47.9685   Oco2      1 RES1   0.0000
  3999 O71     26.6220  11.1699  47.9685   Oco2      1 RES1   0.0000
  4000 O72     35.7998  11.1699  50.1229   Oco2      1 RES1   0.0000
  4001 O73     21.5587   9.3437  51.8886   Oco2      1 RES1   0.0000
  4002 O74     23.0283  17.4085  51.8886   Oco2      1 RES1   0.0000
  4003 O75     23.0283   9.3437  46.2028   Oco2      1 RES1   0.0000
  4004 O76     21.5587  17.4085  46.2028   Oco2      1 RES1   0.0000
  4005 O77     34.0538   3.7239  45.0133   Oco2      1 RES1   0.0000
  4006 O78     34.0538   5.1935  53.0781   Oco2      1 RES1   0.0000
  4007 O79     28.3680   5.1935  45.0133   Oco2      1 RES1   0.0000
  4008 O80     28.3680   3.7239  53.0781   Oco2      1 RES1   0.0000
  4009 O81     27.1785  16.2190  39.3935   Oco2      1 RES1   0.0000
  4010 O82     35.2433  16.2190  40.8631   Oco2      1 RES1   0.0000
  4011 O83     27.1785  10.5332  40.8631   Oco2      1 RES1   0.0000
  4012 O84     35.2433  10.5332  39.3935   Oco2      1 RES1   0.0000
  4013 O87     30.4761   8.4911  42.9712   Oco2      1 RES1   0.0000
  4014 O88     31.9457   0.4263  42.9712   Oco2      1 RES1   0.0000
  4015 O91     25.1364  12.6413  44.1607   Oco2      1 RES1   0.0000
  4016 O92     25.1364  14.1109  36.0959   Oco2      1 RES1   0.0000
  4017 O93     26.3259   1.6158  49.7805   Oco2      1 RES1   0.0000
  4018 O94     18.2611   1.6158  48.3109   Oco2      1 RES1   0.0000
  4019 O95     26.3259   7.3016  48.3109   Oco2      1 RES1   0.0000
  4020 O96     18.2611   7.3016  49.7805   Oco2      1 RES1   0.0000
  4021 C1      20.6955  12.2900  36.0976   C.2       1 RES1   0.0000
  4022 C2      23.8915  14.4622  36.0976   C.2       1 RES1   0.0000
  4023 C3      23.8915  12.2900  44.1590   C.2       1 RES1   0.0000
  4024 C4      20.6955  14.4622  44.1590   C.2       1 RES1   0.0000
  4025 C5      18.2628   2.8607  47.9596   C.2       1 RES1   0.0000
  4026 C6      18.2628   6.0567  50.1318   C.2       1 RES1   0.0000
  4027 C7      26.3242   6.0567  47.9596   C.2       1 RES1   0.0000
  4028 C8      26.3242   2.8607  50.1318   C.2       1 RES1   0.0000
  4029 C9      30.1248   0.4280  38.5303   C.2       1 RES1   0.0000
  4030 C10     32.2970   0.4280  41.7263   C.2       1 RES1   0.0000
  4031 C11     30.1248   8.4894  41.7263   C.2       1 RES1   0.0000
  4032 C12     32.2970   8.4894  38.5303   C.2       1 RES1   0.0000
  4033 C13     32.8089   5.5448  53.0764   C.2       1 RES1   0.0000
  4034 C14     29.6129   3.3726  53.0764   C.2       1 RES1   0.0000
  4035 C15     29.6129   5.5448  45.0150   C.2       1 RES1   0.0000
  4036 C16     32.8089   3.3726  45.0150   C.2       1 RES1   0.0000
  4037 C17     35.2416  14.9741  41.2144   C.2       1 RES1   0.0000
  4038 C18     35.2416  11.7781  39.0422   C.2       1 RES1   0.0000
  4039 C19     27.1802  11.7781  41.2144   C.2       1 RES1   0.0000
  4040 C20     27.1802  14.9741  39.0422   C.2       1 RES1   0.0000
  4041 C21     23.3796  17.4068  50.6437   C.2       1 RES1   0.0000
  4042 C22     21.2074  17.4068  47.4477   C.2       1 RES1   0.0000
  4043 C23     23.3796   9.3454  47.4477   C.2       1 RES1   0.0000
  4044 C24     21.2074   9.3454  50.6437   C.2       1 RES1   0.0000
  4045 C25     21.6550  13.4742  36.1030   C.2       1 RES1   0.0000
  4046 C26     22.9320  13.2780  36.1030   C.2       1 RES1   0.0000
  4047 C27     22.9320  13.4742  44.1536   C.2       1 RES1   0.0000
  4048 C28     21.6550  13.2780  44.1536   C.2       1 RES1   0.0000
  4049 C29     18.2682   3.8202  49.1438   C.2       1 RES1   0.0000
  4050 C30     18.2682   5.0972  48.9476   C.2       1 RES1   0.0000
  4051 C31     26.3188   5.0972  49.1438   C.2       1 RES1   0.0000
  4052 C32     26.3188   3.8202  48.9476   C.2       1 RES1   0.0000
  4053 C33     31.3090   0.4334  39.4898   C.2       1 RES1   0.0000
  4054 C34     31.1128   0.4334  40.7668   C.2       1 RES1   0.0000
  4055 C35     31.3090   8.4840  40.7668   C.2       1 RES1   0.0000
  4056 C36     31.1128   8.4840  39.4898   C.2       1 RES1   0.0000
  4057 C37     31.8494   4.3606  53.0710   C.2       1 RES1   0.0000
  4058 C38     30.5724   4.5568  53.0710   C.2       1 RES1   0.0000
  4059 C39     30.5724   4.3606  45.0204   C.2       1 RES1   0.0000
  4060 C40     31.8494   4.5568  45.0204   C.2       1 RES1   0.0000
  4061 C41     35.2362  14.0146  40.0302   C.2       1 RES1   0.0000
  4062 C42     35.2362  12.7376  40.2264   C.2       1 RES1   0.0000
  4063 C43     27.1856  12.7376  40.0302   C.2       1 RES1   0.0000
  4064 C44     27.1856  14.0146  40.2264   C.2       1 RES1   0.0000
  4065 C45     22.1954  17.4014  49.6842   C.2       1 RES1   0.0000
  4066 C46     22.3916  17.4014  48.4072   C.2       1 RES1   0.0000
  4067 C47     22.1954   9.3508  48.4072   C.2       1 RES1   0.0000
  4068 C48     22.3916   9.3508  49.6842   C.2       1 RES1   0.0000
  4069 H1      21.3215  14.3427  36.1048   H         1 RES1   0.0000
  4070 H2      23.2655  12.4095  36.1048   H         1 RES1   0.0000
  4071 H3      23.2655  14.3427  44.1518   H         1 RES1   0.0000
  4072 H4      21.3215  12.4095  44.1518   H         1 RES1   0.0000
  4073 H5      18.2700   3.4867  50.0123   H         1 RES1   0.0000
  4074 H6      18.2700   5.4307  48.0791   H         1 RES1   0.0000
  4075 H7      26.3170   5.4307  50.0123   H         1 RES1   0.0000
  4076 H8      26.3170   3.4867  48.0791   H         1 RES1   0.0000
  4077 H9      32.1775   0.4352  39.1563   H         1 RES1   0.0000
  4078 H10     30.2443   0.4352  41.1003   H         1 RES1   0.0000
  4079 H11     32.1775   8.4822  41.1003   H         1 RES1   0.0000
  4080 H12     30.2443   8.4822  39.1563   H         1 RES1   0.0000
  4081 H13     32.1829   3.4921  53.0692   H         1 RES1   0.0000
  4082 H14     30.2389   5.4253  53.0692   H         1 RES1   0.0000
  4083 H15     30.2389   3.4921  45.0222   H         1 RES1   0.0000
  4084 H16     32.1829   5.4253  45.0222   H         1 RES1   0.0000
  4085 H17     35.2344  14.3481  39.1617   H         1 RES1   0.0000
  4086 H18     35.2344  12.4041  41.0949   H         1 RES1   0.0000
  4087 H19     27.1874  12.4041  39.1617   H         1 RES1   0.0000
  4088 H20     27.1874  14.3481  41.0949   H         1 RES1   0.0000
  4089 H21     21.3269  17.3996  50.0177   H         1 RES1   0.0000
  4090 H22     23.2601  17.3996  48.0737   H         1 RES1   0.0000
  4091 H23     21.3269   9.3526  48.0737   H         1 RES1   0.0000
  4092 H24     23.2601   9.3526  50.0177   H         1 RES1   0.0000
  4093 C49     21.2341   6.0603  35.6696   C.2       1 RES1   0.0000
  4094 C50     23.3529   2.8571  35.6696   C.2       1 RES1   0.0000
  4095 C51     23.3529   6.0603  44.5870   C.2       1 RES1   0.0000
  4096 C52     21.2341   2.8571  44.5870   C.2       1 RES1   0.0000
  4097 C53     17.8348   3.3993  41.7299   C.2       1 RES1   0.0000
  4098 C54     17.8348   5.5181  38.5267   C.2       1 RES1   0.0000
  4099 C55     26.7522   5.5181  41.7299   C.2       1 RES1   0.0000
  4100 C56     26.7522   3.3993  38.5267   C.2       1 RES1   0.0000
  4101 C57     23.8951   0.0000  39.0689   C.2       1 RES1   0.0000
  4102 C58     20.6919   0.0000  41.1877   C.2       1 RES1   0.0000
  4103 C59     23.8951   8.9174  41.1877   C.2       1 RES1   0.0000
  4104 C60     20.6919   8.9174  39.0689   C.2       1 RES1   0.0000
  4105 C61     32.2703  11.7745  53.5044   C.2       1 RES1   0.0000
  4106 C62     30.1515  14.9777  53.5044   C.2       1 RES1   0.0000
  4107 C63     30.1515  11.7745  44.5870   C.2       1 RES1   0.0000
  4108 C64     32.2703  14.9777  44.5870   C.2       1 RES1   0.0000
  4109 C65     35.6696  14.4355  47.4441   C.2       1 RES1   0.0000
  4110 C66     35.6696  12.3167  50.6473   C.2       1 RES1   0.0000
  4111 C67     26.7522  12.3167  47.4441   C.2       1 RES1   0.0000
  4112 C68     26.7522  14.4355  50.6473   C.2       1 RES1   0.0000
  4113 C69     29.6093  17.8348  50.1051   C.2       1 RES1   0.0000
  4114 C70     32.8125  17.8348  47.9863   C.2       1 RES1   0.0000
  4115 C71     29.6093   8.9174  47.9863   C.2       1 RES1   0.0000
  4116 C72     32.8125   8.9174  50.1051   C.2       1 RES1   0.0000
  4117 C73     22.4130   5.1097  35.6714   C.2       1 RES1   0.0000
  4118 C74     22.1740   3.8077  35.6714   C.2       1 RES1   0.0000
  4119 C75     22.1740   5.1097  44.5852   C.2       1 RES1   0.0000
  4120 C76     22.4130   3.8077  44.5852   C.2       1 RES1   0.0000
  4121 C77     17.8366   4.5782  40.7793   C.2       1 RES1   0.0000
  4122 C78     17.8366   4.3392  39.4773   C.2       1 RES1   0.0000
  4123 C79     26.7504   4.3392  40.7793   C.2       1 RES1   0.0000
  4124 C80     26.7504   4.5782  39.4773   C.2       1 RES1   0.0000
  4125 C81     22.9445   0.0018  40.2478   C.2       1 RES1   0.0000
  4126 C82     21.6425   0.0018  40.0088   C.2       1 RES1   0.0000
  4127 C83     22.9445   8.9156  40.0088   C.2       1 RES1   0.0000
  4128 C84     21.6425   8.9156  40.2478   C.2       1 RES1   0.0000
  4129 C85     31.0914  12.7251  53.5026   C.2       1 RES1   0.0000
  4130 C86     31.3304  14.0271  53.5026   C.2       1 RES1   0.0000
  4131 C87     31.3304  12.7251  44.5888   C.2       1 RES1   0.0000
  4132 C88     31.0914  14.0271  44.5888   C.2       1 RES1   0.0000
  4133 C89     35.6678  13.2566  48.3947   C.2       1 RES1   0.0000
  4134 C90     35.6678  13.4956  49.6967   C.2       1 RES1   0.0000
  4135 C91     26.7540  13.4956  48.3947   C.2       1 RES1   0.0000
  4136 C92     26.7540  13.2566  49.6967   C.2       1 RES1   0.0000
  4137 C93     30.5599  17.8330  48.9262   C.2       1 RES1   0.0000
  4138 C94     31.8619  17.8330  49.1652   C.2       1 RES1   0.0000
  4139 C95     30.5599   8.9192  49.1652   C.2       1 RES1   0.0000
  4140 C96     31.8619   8.9192  48.9262   C.2       1 RES1   0.0000
  4141 H25     23.2851   5.4325  35.6714   H         1 RES1   0.0000
  4142 H26     21.3019   3.4849  35.6714   H         1 RES1   0.0000
  4143 H27     21.3019   5.4325  44.5852   H         1 RES1   0.0000
  4144 H28     23.2851   3.4849  44.5852   H         1 RES1   0.0000
  4145 H29     17.8366   5.4503  41.1021   H         1 RES1   0.0000
  4146 H30     17.8366   3.4671  39.1545   H         1 RES1   0.0000
  4147 H31     26.7504   3.4671  41.1021   H         1 RES1   0.0000
  4148 H32     26.7504   5.4503  39.1545   H         1 RES1   0.0000
  4149 H33     23.2673   0.0018  41.1199   H         1 RES1   0.0000
  4150 H34     21.3197   0.0018  39.1367   H         1 RES1   0.0000
  4151 H35     23.2673   8.9156  39.1367   H         1 RES1   0.0000
  4152 H36     21.3197   8.9156  41.1199   H         1 RES1   0.0000
  4153 H37     30.2193  12.4023  53.5026   H         1 RES1   0.0000
  4154 H38     32.2025  14.3499  53.5026   H         1 RES1   0.0000
  4155 H39     32.2025  12.4023  44.5888   H         1 RES1   0.0000
  4156 H40     30.2193  14.3499  44.5888   H         1 RES1   0.0000
  4157 H41     35.6678  12.3845  48.0719   H         1 RES1   0.0000
  4158 H42     35.6678  14.3677  50.0195   H         1 RES1   0.0000
  4159 H43     26.7540  14.3677  48.0719   H         1 RES1   0.0000
  4160 H44     26.7540  12.3845  50.0195   H         1 RES1   0.0000
  4161 H45     30.2371  17.8330  48.0541   H         1 RES1   0.0000
  4162 H46     32.1847  17.8330  50.0373   H         1 RES1   0.0000
  4163 H47     30.2371   8.9192  50.0373   H         1 RES1   0.0000
  4164 H48     32.1847   8.9192  48.0541   H         1 RES1   0.0000
  4165 O97     19.1992  10.5529  52.3505   O3        1 RES1   0.0000
  4166 O98     25.3878  16.1993  52.3505   O3        1 RES1   0.0000
  4167 O99     25.3878  10.5529  45.7409   O3        1 RES1   0.0000
  4168 O101    34.5157   1.3644  46.2225   O3        1 RES1   0.0000
  4169 O102    34.5157   7.5530  51.8689   O3        1 RES1   0.0000
  4170 O103    27.9061   7.5530  46.2225   O3        1 RES1   0.0000
  4171 O104    27.9061   1.3644  51.8689   O3        1 RES1   0.0000
  4172 O105    28.3877  16.6809  37.0340   O3        1 RES1   0.0000
  4173 O106    34.0341  16.6809  43.2226   O3        1 RES1   0.0000
  4174 O107    28.3877  10.0713  43.2226   O3        1 RES1   0.0000
  4175 O111    28.1166   7.2819  43.4331   O3        1 RES1   0.0000
  4176 O112    34.3052   1.6355  43.4331   O3        1 RES1   0.0000
  4177 O115    25.5983  10.2818  42.9515   O3        1 RES1   0.0000
  4178 O116    25.5983  16.4704  37.3051   O3        1 RES1   0.0000
  4179 O117    25.1167   1.1539  52.1400   O3        1 RES1   0.0000
  4180 O118    19.4703   1.1539  45.9514   O3        1 RES1   0.0000
  4181 O119    25.1167   7.7635  45.9514   O3        1 RES1   0.0000
  4182 O155    25.3522   7.5174  43.1870   O3        1 RES1   0.0000
  4183 O157    34.2696  10.3174  52.1044   O3        1 RES1   0.0000
  4184 O158    28.1522  16.4348  52.1044   O3        1 RES1   0.0000
  4185 O159    28.1522  10.3174  45.9870   O3        1 RES1   0.0000
  4186 O160    34.2696  16.4348  45.9870   O3        1 RES1   0.0000
  4187 Zr1     20.2933   9.1159  53.7163   Zr        1 RES1   0.0000
  4188 Zr1     38.1281   9.1159  35.8815   Zr        1 RES1   0.0000
  4189 Zr2     24.2937  -0.1985  53.7163   Zr        1 RES1   0.0000
  4190 Zr2     24.2937  17.6363  53.7163   Zr        1 RES1   0.0000
  4191 Zr4     38.1281  -0.1985  44.3751   Zr        1 RES1   0.0000
  4192 Zr4     38.1281  17.6363  44.3751   Zr        1 RES1   0.0000
  4193 Zr5     35.8815   2.4585  44.7855   Zr        1 RES1   0.0000
  4194 Zr6     35.8815   6.4589  53.3059   Zr        1 RES1   0.0000
  4195 Zr8     26.5403  20.2933  53.3059   Zr        1 RES1   0.0000
  4196 Zr9     26.9507   0.2119  55.9629   Zr        1 RES1   0.0000
  4197 Zr9     26.9507  18.0467  38.1281   Zr        1 RES1   0.0000
  4198 Zr10    35.4711  18.0467  42.1285   Zr        1 RES1   0.0000
  4199 Zr12    35.4711   8.7055  55.9629   Zr        1 RES1   0.0000
  4200 Zr14    29.2107  18.0333  53.2925   Zr        1 RES1   0.0000
  4201 Zr16    33.2111  18.0333  44.7989   Zr        1 RES1   0.0000
  4202 Zr17    35.4577  -2.4585  44.3885   Zr        1 RES1   0.0000
  4203 Zr18    35.4577  11.3759  53.7029   Zr        1 RES1   0.0000
  4204 Zr20    26.9641  -2.4585  53.7029   Zr        1 RES1   0.0000
  4205 Zr20    26.9641  15.3763  53.7029   Zr        1 RES1   0.0000
  4206 Zr21    26.5537  -0.2119  51.0459   Zr        1 RES1   0.0000
  4207 Zr22    35.8681  -0.2119  47.0455   Zr        1 RES1   0.0000
  4208 Zr22    35.8681  17.6229  47.0455   Zr        1 RES1   0.0000
  4209 Zr24    35.8681   9.1293  51.0459   Zr        1 RES1   0.0000
  4210 O2      23.0247  19.4667  35.8123   Oco2      1 RES1   0.0000
  4211 O4      21.5623  19.4667  44.4443   Oco2      1 RES1   0.0000
  4212 O6      17.9775   5.1899  55.1363   O.2       1 RES1   0.0000
  4213 O8      26.6095   3.7275  55.1363   O.2       1 RES1   0.0000
  4214 O10     37.3015   0.1427  40.8595   Oco2      1 RES1   0.0000
  4215 O12     37.3015   8.7747  39.3971   Oco2      1 RES1   0.0000
  4216 O14     30.4797  -1.6319  53.3617   O.2       1 RES1   0.0000
  4217 O16     31.9421  -1.6319  44.7297   O.2       1 RES1   0.0000
  4218 O50     23.3707  17.7046  37.9221   Oco2      1 RES1   0.0000
  4219 O52     21.2163  17.7046  42.3345   Oco2      1 RES1   0.0000
  4220 O54     20.0873   5.5359  53.3742   O.2       1 RES1   0.0000
  4221 O56     24.4997   3.3815  53.3742   O.2       1 RES1   0.0000
  4222 O58     35.5394   2.2525  41.2055   Oco2      1 RES1   0.0000
  4223 O60     35.5394   6.6649  39.0511   Oco2      1 RES1   0.0000
  4224 O62     30.1337   0.1302  51.2519   O.2       1 RES1   0.0000
  4225 O64     32.2881   0.1302  46.8395   O.2       1 RES1   0.0000
  4226 O81     27.1785  -1.6158  39.3935   O.2       1 RES1   0.0000
  4227 O82     35.2433  -1.6158  40.8631   O.2       1 RES1   0.0000
  4228 O85     31.9457   8.4911  55.1202   O.2       1 RES1   0.0000
  4229 O86     30.4761   0.4263  55.1202   O.2       1 RES1   0.0000
  4230 O89     37.2854  14.1109  44.1607   Oco2      1 RES1   0.0000
  4231 O90     37.2854  12.6413  36.0959   Oco2      1 RES1   0.0000
  4232 O93     26.3259  19.4506  49.7805   Oco2      1 RES1   0.0000
  4233 O94     18.2611  19.4506  48.3109   Oco2      1 RES1   0.0000
  4234 O97     37.0340  10.5529  34.5157   O3        1 RES1   0.0000
  4235 O100    37.0340  16.1993  45.7409   O3        1 RES1   0.0000
  4236 O104    27.9061  19.1992  51.8689   O3        1 RES1   0.0000
  4237 O105    28.3877  -1.1539  54.8688   O3        1 RES1   0.0000
  4238 O106    34.0341  -1.1539  43.2226   O3        1 RES1   0.0000
  4239 O108    34.0341  10.0713  54.8688   O3        1 RES1   0.0000
  4240 O109    34.3052   7.2819  54.6583   O3        1 RES1   0.0000
  4241 O110    28.1166   1.6355  54.6583   O3        1 RES1   0.0000
  4242 O113    36.8235  -1.3644  42.9515   O3        1 RES1   0.0000
  4243 O113    36.8235  16.4704  42.9515   O3        1 RES1   0.0000
  4244 O114    36.8235  10.2818  37.3051   O3        1 RES1   0.0000
  4245 O116    25.5983  -1.3644  37.3051   O3        1 RES1   0.0000
  4246 O117    25.1167  18.9887  52.1400   O3        1 RES1   0.0000
  4247 O118    19.4703  18.9887  45.9514   O3        1 RES1   0.0000
  4248 O120    19.4703   7.7635  34.3052   O3        1 RES1   0.0000
  4249 O153    19.2348   7.5174  54.9044   O3        1 RES1   0.0000
  4250 O153    37.0696   7.5174  37.0696   O3        1 RES1   0.0000
  4251 O154    25.3522   1.4000  54.9044   O3        1 RES1   0.0000
  4252 O154    25.3522  19.2348  37.0696   O3        1 RES1   0.0000
  4253 O156    37.0696   1.4000  43.1870   O3        1 RES1   0.0000
  4254 O158    28.1522  -1.4000  52.1044   O3        1 RES1   0.0000
  4255 O160    34.2696  -1.4000  45.9870   O3        1 RES1   0.0000
  4256 Zr2     24.2937  35.4711   0.2119   Zr        1 RES1   0.0000
  4257 Zr3     24.2937  26.9507   8.7055   Zr        1 RES1   0.0000
  4258 Zr7     26.5403  24.2937   9.1159   Zr        1 RES1   0.0000
  4259 Zr11    26.9507  26.5403   6.4589   Zr        1 RES1   0.0000
  4260 Zr12    35.4711  26.5403   2.4585   Zr        1 RES1   0.0000
  4261 Zr13    33.2111  26.5537  17.6229   Zr        1 RES1   0.0000
  4262 Zr15    29.2107  26.5537   9.1293   Zr        1 RES1   0.0000
  4263 Zr17    35.4577  33.2111   8.7189   Zr        1 RES1   0.0000
  4264 Zr18    35.4577  29.2107   0.1985   Zr        1 RES1   0.0000
  4265 Zr19    26.9641  29.2107   8.7189   Zr        1 RES1   0.0000
  4266 Zr20    26.9641  33.2111   0.1985   Zr        1 RES1   0.0000
  4267 Zr21    26.5537  35.4577  15.3763   Zr        1 RES1   0.0000
  4268 Zr23    26.5537  26.9641  11.3759   Zr        1 RES1   0.0000
  4269 O1      21.5623  25.1203   0.1427   Oco2      1 RES1   0.0000
  4270 O3      23.0247  25.1203   8.7747   Oco2      1 RES1   0.0000
  4271 O5      17.9775  21.5623   7.2855   Oco2      1 RES1   0.0000
  4272 O6      17.9775  23.0247   1.6319   Oco2      1 RES1   0.0000
  4273 O7      26.6095  23.0247   7.2855   Oco2      1 RES1   0.0000
  4274 O8      26.6095  21.5623   1.6319   Oco2      1 RES1   0.0000
  4275 O9      25.1203  17.9775   3.7275   Oco2      1 RES1   0.0000
  4276 O11     25.1203  26.6095   5.1899   Oco2      1 RES1   0.0000
  4277 O13     31.9421  28.3841  17.6921   Oco2      1 RES1   0.0000
  4278 O14     30.4797  34.0377  17.6921   Oco2      1 RES1   0.0000
  4279 O15     30.4797  28.3841   9.0601   Oco2      1 RES1   0.0000
  4280 O16     31.9421  34.0377   9.0601   Oco2      1 RES1   0.0000
  4281 O17     35.5269  31.9421  10.5493   Oco2      1 RES1   0.0000
  4282 O18     35.5269  30.4797  16.2029   Oco2      1 RES1   0.0000
  4283 O19     26.8949  30.4797  10.5493   Oco2      1 RES1   0.0000
  4284 O20     26.8949  31.9421  16.2029   Oco2      1 RES1   0.0000
  4285 O21     28.3841  35.5269  14.1073   Oco2      1 RES1   0.0000
  4286 O22     34.0377  35.5269  12.6449   Oco2      1 RES1   0.0000
  4287 O23     28.3841  26.8949  12.6449   Oco2      1 RES1   0.0000
  4288 O24     34.0377  26.8949  14.1073   Oco2      1 RES1   0.0000
  4289 O25     21.2305  28.9744   0.4387   Oco2      1 RES1   0.0000
  4290 O26     23.3565  33.4474   0.4387   Oco2      1 RES1   0.0000
  4291 O27     23.3565  28.9744   8.4787   Oco2      1 RES1   0.0000
  4292 O28     21.2305  33.4474   8.4787   Oco2      1 RES1   0.0000
  4293 O29     18.2735  21.2305  11.1396   Oco2      1 RES1   0.0000
  4294 O30     18.2735  23.3565  15.6126   Oco2      1 RES1   0.0000
  4295 O31     26.3135  23.3565  11.1396   Oco2      1 RES1   0.0000
  4296 O32     26.3135  21.2305  15.6126   Oco2      1 RES1   0.0000
  4297 O33     28.9744  18.2735   3.3957   Oco2      1 RES1   0.0000
  4298 O34     33.4474  18.2735   5.5217   Oco2      1 RES1   0.0000
  4299 O35     28.9744  26.3135   5.5217   Oco2      1 RES1   0.0000
  4300 O36     33.4474  26.3135   3.3957   Oco2      1 RES1   0.0000
  4301 O37     32.2739  24.5300  17.3961   Oco2      1 RES1   0.0000
  4302 O38     30.1479  20.0570  17.3961   Oco2      1 RES1   0.0000
  4303 O39     30.1479  24.5300   9.3561   Oco2      1 RES1   0.0000
  4304 O40     32.2739  20.0570   9.3561   Oco2      1 RES1   0.0000
  4305 O41     35.2309  32.2739   6.6952   Oco2      1 RES1   0.0000
  4306 O42     35.2309  30.1479   2.2222   Oco2      1 RES1   0.0000
  4307 O43     27.1909  30.1479   6.6952   Oco2      1 RES1   0.0000
  4308 O44     27.1909  32.2739   2.2222   Oco2      1 RES1   0.0000
  4309 O45     24.5300  35.2309  14.4391   Oco2      1 RES1   0.0000
  4310 O46     20.0570  35.2309  12.3131   Oco2      1 RES1   0.0000
  4311 O47     24.5300  27.1909  12.3131   Oco2      1 RES1   0.0000
  4312 O48     20.0570  27.1909  14.4391   Oco2      1 RES1   0.0000
  4313 O49     21.2163  26.8824   2.2525   Oco2      1 RES1   0.0000
  4314 O51     23.3707  26.8824   6.6649   Oco2      1 RES1   0.0000
  4315 O53     20.0873  21.2163   9.0476   Oco2      1 RES1   0.0000
  4316 O54     20.0873  23.3707  -0.1302   Oco2      1 RES1   0.0000
  4317 O55     24.4997  23.3707   9.0476   Oco2      1 RES1   0.0000
  4318 O56     24.4997  21.2163  -0.1302   Oco2      1 RES1   0.0000
  4319 O57     26.8824  20.0873   3.3815   Oco2      1 RES1   0.0000
  4320 O59     26.8824  24.4997   5.5359   Oco2      1 RES1   0.0000
  4321 O61     32.2881  26.6220  15.5823   Oco2      1 RES1   0.0000
  4322 O62     30.1337  35.7998  15.5823   Oco2      1 RES1   0.0000
  4323 O63     30.1337  26.6220  11.1699   Oco2      1 RES1   0.0000
  4324 O64     32.2881  35.7998  11.1699   Oco2      1 RES1   0.0000
  4325 O65     33.4171  32.2881   8.7872   Oco2      1 RES1   0.0000
  4326 O66     33.4171  30.1337  17.9650   Oco2      1 RES1   0.0000
  4327 O67     29.0047  30.1337   8.7872   Oco2      1 RES1   0.0000
  4328 O68     29.0047  32.2881  17.9650   Oco2      1 RES1   0.0000
  4329 O69     26.6220  33.4171  14.4533   Oco2      1 RES1   0.0000
  4330 O70     35.7998  33.4171  12.2989   Oco2      1 RES1   0.0000
  4331 O71     26.6220  29.0047  12.2989   Oco2      1 RES1   0.0000
  4332 O72     35.7998  29.0047  14.4533   Oco2      1 RES1   0.0000
  4333 O73     21.5587  27.1785  16.2190   Oco2      1 RES1   0.0000
  4334 O74     23.0283  35.2433  16.2190   Oco2      1 RES1   0.0000
  4335 O75     23.0283  27.1785  10.5332   Oco2      1 RES1   0.0000
  4336 O76     21.5587  35.2433  10.5332   Oco2      1 RES1   0.0000
  4337 O77     34.0538  21.5587   9.3437   Oco2      1 RES1   0.0000
  4338 O78     34.0538  23.0283  17.4085   Oco2      1 RES1   0.0000
  4339 O79     28.3680  23.0283   9.3437   Oco2      1 RES1   0.0000
  4340 O80     28.3680  21.5587  17.4085   Oco2      1 RES1   0.0000
  4341 O81     27.1785  34.0538   3.7239   Oco2      1 RES1   0.0000
  4342 O82     35.2433  34.0538   5.1935   Oco2      1 RES1   0.0000
  4343 O83     27.1785  28.3680   5.1935   Oco2      1 RES1   0.0000
  4344 O84     35.2433  28.3680   3.7239   Oco2      1 RES1   0.0000
  4345 O85     31.9457  26.3259   1.6158   Oco2      1 RES1   0.0000
  4346 O86     30.4761  18.2611   1.6158   Oco2      1 RES1   0.0000
  4347 O87     30.4761  26.3259   7.3016   Oco2      1 RES1   0.0000
  4348 O88     31.9457  18.2611   7.3016   Oco2      1 RES1   0.0000
  4349 O91     25.1364  30.4761   8.4911   Oco2      1 RES1   0.0000
  4350 O92     25.1364  31.9457   0.4263   Oco2      1 RES1   0.0000
  4351 O95     26.3259  25.1364  12.6413   Oco2      1 RES1   0.0000
  4352 O96     18.2611  25.1364  14.1109   Oco2      1 RES1   0.0000
  4353 C1      20.6955  30.1248   0.4280   C.2       1 RES1   0.0000
  4354 C2      23.8915  32.2970   0.4280   C.2       1 RES1   0.0000
  4355 C3      23.8915  30.1248   8.4894   C.2       1 RES1   0.0000
  4356 C4      20.6955  32.2970   8.4894   C.2       1 RES1   0.0000
  4357 C5      18.2628  20.6955  12.2900   C.2       1 RES1   0.0000
  4358 C6      18.2628  23.8915  14.4622   C.2       1 RES1   0.0000
  4359 C7      26.3242  23.8915  12.2900   C.2       1 RES1   0.0000
  4360 C8      26.3242  20.6955  14.4622   C.2       1 RES1   0.0000
  4361 C9      30.1248  18.2628   2.8607   C.2       1 RES1   0.0000
  4362 C10     32.2970  18.2628   6.0567   C.2       1 RES1   0.0000
  4363 C11     30.1248  26.3242   6.0567   C.2       1 RES1   0.0000
  4364 C12     32.2970  26.3242   2.8607   C.2       1 RES1   0.0000
  4365 C13     32.8089  23.3796  17.4068   C.2       1 RES1   0.0000
  4366 C14     29.6129  21.2074  17.4068   C.2       1 RES1   0.0000
  4367 C15     29.6129  23.3796   9.3454   C.2       1 RES1   0.0000
  4368 C16     32.8089  21.2074   9.3454   C.2       1 RES1   0.0000
  4369 C17     35.2416  32.8089   5.5448   C.2       1 RES1   0.0000
  4370 C18     35.2416  29.6129   3.3726   C.2       1 RES1   0.0000
  4371 C19     27.1802  29.6129   5.5448   C.2       1 RES1   0.0000
  4372 C20     27.1802  32.8089   3.3726   C.2       1 RES1   0.0000
  4373 C21     23.3796  35.2416  14.9741   C.2       1 RES1   0.0000
  4374 C22     21.2074  35.2416  11.7781   C.2       1 RES1   0.0000
  4375 C23     23.3796  27.1802  11.7781   C.2       1 RES1   0.0000
  4376 C24     21.2074  27.1802  14.9741   C.2       1 RES1   0.0000
  4377 C25     21.6550  31.3090   0.4334   C.2       1 RES1   0.0000
  4378 C26     22.9320  31.1128   0.4334   C.2       1 RES1   0.0000
  4379 C27     22.9320  31.3090   8.4840   C.2       1 RES1   0.0000
  4380 C28     21.6550  31.1128   8.4840   C.2       1 RES1   0.0000
  4381 C29     18.2682  21.6550  13.4742   C.2       1 RES1   0.0000
  4382 C30     18.2682  22.9320  13.2780   C.2       1 RES1   0.0000
  4383 C31     26.3188  22.9320  13.4742   C.2       1 RES1   0.0000
  4384 C32     26.3188  21.6550  13.2780   C.2       1 RES1   0.0000
  4385 C33     31.3090  18.2682   3.8202   C.2       1 RES1   0.0000
  4386 C34     31.1128  18.2682   5.0972   C.2       1 RES1   0.0000
  4387 C35     31.3090  26.3188   5.0972   C.2       1 RES1   0.0000
  4388 C36     31.1128  26.3188   3.8202   C.2       1 RES1   0.0000
  4389 C37     31.8494  22.1954  17.4014   C.2       1 RES1   0.0000
  4390 C38     30.5724  22.3916  17.4014   C.2       1 RES1   0.0000
  4391 C39     30.5724  22.1954   9.3508   C.2       1 RES1   0.0000
  4392 C40     31.8494  22.3916   9.3508   C.2       1 RES1   0.0000
  4393 C41     35.2362  31.8494   4.3606   C.2       1 RES1   0.0000
  4394 C42     35.2362  30.5724   4.5568   C.2       1 RES1   0.0000
  4395 C43     27.1856  30.5724   4.3606   C.2       1 RES1   0.0000
  4396 C44     27.1856  31.8494   4.5568   C.2       1 RES1   0.0000
  4397 C45     22.1954  35.2362  14.0146   C.2       1 RES1   0.0000
  4398 C46     22.3916  35.2362  12.7376   C.2       1 RES1   0.0000
  4399 C47     22.1954  27.1856  12.7376   C.2       1 RES1   0.0000
  4400 C48     22.3916  27.1856  14.0146   C.2       1 RES1   0.0000
  4401 H1      21.3215  32.1775   0.4352   H         1 RES1   0.0000
  4402 H2      23.2655  30.2443   0.4352   H         1 RES1   0.0000
  4403 H3      23.2655  32.1775   8.4822   H         1 RES1   0.0000
  4404 H4      21.3215  30.2443   8.4822   H         1 RES1   0.0000
  4405 H5      18.2700  21.3215  14.3427   H         1 RES1   0.0000
  4406 H6      18.2700  23.2655  12.4095   H         1 RES1   0.0000
  4407 H7      26.3170  23.2655  14.3427   H         1 RES1   0.0000
  4408 H8      26.3170  21.3215  12.4095   H         1 RES1   0.0000
  4409 H9      32.1775  18.2700   3.4867   H         1 RES1   0.0000
  4410 H10     30.2443  18.2700   5.4307   H         1 RES1   0.0000
  4411 H11     32.1775  26.3170   5.4307   H         1 RES1   0.0000
  4412 H12     30.2443  26.3170   3.4867   H         1 RES1   0.0000
  4413 H13     32.1829  21.3269  17.3996   H         1 RES1   0.0000
  4414 H14     30.2389  23.2601  17.3996   H         1 RES1   0.0000
  4415 H15     30.2389  21.3269   9.3526   H         1 RES1   0.0000
  4416 H16     32.1829  23.2601   9.3526   H         1 RES1   0.0000
  4417 H17     35.2344  32.1829   3.4921   H         1 RES1   0.0000
  4418 H18     35.2344  30.2389   5.4253   H         1 RES1   0.0000
  4419 H19     27.1874  30.2389   3.4921   H         1 RES1   0.0000
  4420 H20     27.1874  32.1829   5.4253   H         1 RES1   0.0000
  4421 H21     21.3269  35.2344  14.3481   H         1 RES1   0.0000
  4422 H22     23.2601  35.2344  12.4041   H         1 RES1   0.0000
  4423 H23     21.3269  27.1874  12.4041   H         1 RES1   0.0000
  4424 H24     23.2601  27.1874  14.3481   H         1 RES1   0.0000
  4425 C49     21.2341  23.8951   0.0000   C.2       1 RES1   0.0000
  4426 C50     23.3529  20.6919   0.0000   C.2       1 RES1   0.0000
  4427 C51     23.3529  23.8951   8.9174   C.2       1 RES1   0.0000
  4428 C52     21.2341  20.6919   8.9174   C.2       1 RES1   0.0000
  4429 C53     17.8348  21.2341   6.0603   C.2       1 RES1   0.0000
  4430 C54     17.8348  23.3529   2.8571   C.2       1 RES1   0.0000
  4431 C55     26.7522  23.3529   6.0603   C.2       1 RES1   0.0000
  4432 C56     26.7522  21.2341   2.8571   C.2       1 RES1   0.0000
  4433 C57     23.8951  17.8348   3.3993   C.2       1 RES1   0.0000
  4434 C58     20.6919  17.8348   5.5181   C.2       1 RES1   0.0000
  4435 C59     23.8951  26.7522   5.5181   C.2       1 RES1   0.0000
  4436 C60     20.6919  26.7522   3.3993   C.2       1 RES1   0.0000
  4437 C61     32.2703  29.6093  17.8348   C.2       1 RES1   0.0000
  4438 C62     30.1515  32.8125  17.8348   C.2       1 RES1   0.0000
  4439 C63     30.1515  29.6093   8.9174   C.2       1 RES1   0.0000
  4440 C64     32.2703  32.8125   8.9174   C.2       1 RES1   0.0000
  4441 C65     35.6696  32.2703  11.7745   C.2       1 RES1   0.0000
  4442 C66     35.6696  30.1515  14.9777   C.2       1 RES1   0.0000
  4443 C67     26.7522  30.1515  11.7745   C.2       1 RES1   0.0000
  4444 C68     26.7522  32.2703  14.9777   C.2       1 RES1   0.0000
  4445 C69     29.6093  35.6696  14.4355   C.2       1 RES1   0.0000
  4446 C70     32.8125  35.6696  12.3167   C.2       1 RES1   0.0000
  4447 C71     29.6093  26.7522  12.3167   C.2       1 RES1   0.0000
  4448 C72     32.8125  26.7522  14.4355   C.2       1 RES1   0.0000
  4449 C73     22.4130  22.9445   0.0018   C.2       1 RES1   0.0000
  4450 C74     22.1740  21.6425   0.0018   C.2       1 RES1   0.0000
  4451 C75     22.1740  22.9445   8.9156   C.2       1 RES1   0.0000
  4452 C76     22.4130  21.6425   8.9156   C.2       1 RES1   0.0000
  4453 C77     17.8366  22.4130   5.1097   C.2       1 RES1   0.0000
  4454 C78     17.8366  22.1740   3.8077   C.2       1 RES1   0.0000
  4455 C79     26.7504  22.1740   5.1097   C.2       1 RES1   0.0000
  4456 C80     26.7504  22.4130   3.8077   C.2       1 RES1   0.0000
  4457 C81     22.9445  17.8366   4.5782   C.2       1 RES1   0.0000
  4458 C82     21.6425  17.8366   4.3392   C.2       1 RES1   0.0000
  4459 C83     22.9445  26.7504   4.3392   C.2       1 RES1   0.0000
  4460 C84     21.6425  26.7504   4.5782   C.2       1 RES1   0.0000
  4461 C85     31.0914  30.5599  17.8330   C.2       1 RES1   0.0000
  4462 C86     31.3304  31.8619  17.8330   C.2       1 RES1   0.0000
  4463 C87     31.3304  30.5599   8.9192   C.2       1 RES1   0.0000
  4464 C88     31.0914  31.8619   8.9192   C.2       1 RES1   0.0000
  4465 C89     35.6678  31.0914  12.7251   C.2       1 RES1   0.0000
  4466 C90     35.6678  31.3304  14.0271   C.2       1 RES1   0.0000
  4467 C91     26.7540  31.3304  12.7251   C.2       1 RES1   0.0000
  4468 C92     26.7540  31.0914  14.0271   C.2       1 RES1   0.0000
  4469 C93     30.5599  35.6678  13.2566   C.2       1 RES1   0.0000
  4470 C94     31.8619  35.6678  13.4956   C.2       1 RES1   0.0000
  4471 C95     30.5599  26.7540  13.4956   C.2       1 RES1   0.0000
  4472 C96     31.8619  26.7540  13.2566   C.2       1 RES1   0.0000
  4473 H25     23.2851  23.2673   0.0018   H         1 RES1   0.0000
  4474 H26     21.3019  21.3197   0.0018   H         1 RES1   0.0000
  4475 H27     21.3019  23.2673   8.9156   H         1 RES1   0.0000
  4476 H28     23.2851  21.3197   8.9156   H         1 RES1   0.0000
  4477 H29     17.8366  23.2851   5.4325   H         1 RES1   0.0000
  4478 H30     17.8366  21.3019   3.4849   H         1 RES1   0.0000
  4479 H31     26.7504  21.3019   5.4325   H         1 RES1   0.0000
  4480 H32     26.7504  23.2851   3.4849   H         1 RES1   0.0000
  4481 H33     23.2673  17.8366   5.4503   H         1 RES1   0.0000
  4482 H34     21.3197  17.8366   3.4671   H         1 RES1   0.0000
  4483 H35     23.2673  26.7504   3.4671   H         1 RES1   0.0000
  4484 H36     21.3197  26.7504   5.4503   H         1 RES1   0.0000
  4485 H37     30.2193  30.2371  17.8330   H         1 RES1   0.0000
  4486 H38     32.2025  32.1847  17.8330   H         1 RES1   0.0000
  4487 H39     32.2025  30.2371   8.9192   H         1 RES1   0.0000
  4488 H40     30.2193  32.1847   8.9192   H         1 RES1   0.0000
  4489 H41     35.6678  30.2193  12.4023   H         1 RES1   0.0000
  4490 H42     35.6678  32.2025  14.3499   H         1 RES1   0.0000
  4491 H43     26.7540  32.2025  12.4023   H         1 RES1   0.0000
  4492 H44     26.7540  30.2193  14.3499   H         1 RES1   0.0000
  4493 H45     30.2371  35.6678  12.3845   H         1 RES1   0.0000
  4494 H46     32.1847  35.6678  14.3677   H         1 RES1   0.0000
  4495 H47     30.2371  26.7540  14.3677   H         1 RES1   0.0000
  4496 H48     32.1847  26.7540  12.3845   H         1 RES1   0.0000
  4497 O98     25.3878  34.0341  16.6809   O3        1 RES1   0.0000
  4498 O99     25.3878  28.3877  10.0713   O3        1 RES1   0.0000
  4499 O101    34.5157  19.1992  10.5529   O3        1 RES1   0.0000
  4500 O102    34.5157  25.3878  16.1993   O3        1 RES1   0.0000
  4501 O103    27.9061  25.3878  10.5529   O3        1 RES1   0.0000
  4502 O105    28.3877  34.5157   1.3644   O3        1 RES1   0.0000
  4503 O106    34.0341  34.5157   7.5530   O3        1 RES1   0.0000
  4504 O107    28.3877  27.9061   7.5530   O3        1 RES1   0.0000
  4505 O108    34.0341  27.9061   1.3644   O3        1 RES1   0.0000
  4506 O109    34.3052  25.1167   1.1539   O3        1 RES1   0.0000
  4507 O110    28.1166  19.4703   1.1539   O3        1 RES1   0.0000
  4508 O111    28.1166  25.1167   7.7635   O3        1 RES1   0.0000
  4509 O112    34.3052  19.4703   7.7635   O3        1 RES1   0.0000
  4510 O115    25.5983  28.1166   7.2819   O3        1 RES1   0.0000
  4511 O116    25.5983  34.3052   1.6355   O3        1 RES1   0.0000
  4512 O119    25.1167  25.5983  10.2818   O3        1 RES1   0.0000
  4513 O155    25.3522  25.3522   7.5174   O3        1 RES1   0.0000
  4514 O157    34.2696  28.1522  16.4348   O3        1 RES1   0.0000
  4515 O158    28.1522  34.2696  16.4348   O3        1 RES1   0.0000
  4516 O159    28.1522  28.1522  10.3174   O3        1 RES1   0.0000
  4517 O160    34.2696  34.2696  10.3174   O3        1 RES1   0.0000
  4518 Zr1     38.1281  26.9507   0.2119   Zr        1 RES1   0.0000
  4519 Zr2     24.2937  35.4711  18.0467   Zr        1 RES1   0.0000
  4520 Zr4     38.1281  35.4711   8.7055   Zr        1 RES1   0.0000
  4521 Zr5     35.8815  20.2933   9.1159   Zr        1 RES1   0.0000
  4522 Zr6     35.8815  24.2937  -0.1985   Zr        1 RES1   0.0000
  4523 Zr6     35.8815  24.2937  17.6363   Zr        1 RES1   0.0000
  4524 Zr8     26.5403  38.1281  -0.1985   Zr        1 RES1   0.0000
  4525 Zr8     26.5403  38.1281  17.6363   Zr        1 RES1   0.0000
  4526 Zr9     26.9507  35.8815   2.4585   Zr        1 RES1   0.0000
  4527 Zr10    35.4711  35.8815   6.4589   Zr        1 RES1   0.0000
  4528 Zr12    35.4711  26.5403  20.2933   Zr        1 RES1   0.0000
  4529 Zr13    33.2111  26.5537  -0.2119   Zr        1 RES1   0.0000
  4530 Zr14    29.2107  35.8681  -0.2119   Zr        1 RES1   0.0000
  4531 Zr14    29.2107  35.8681  17.6229   Zr        1 RES1   0.0000
  4532 Zr16    33.2111  35.8681   9.1293   Zr        1 RES1   0.0000
  4533 Zr18    35.4577  29.2107  18.0333   Zr        1 RES1   0.0000
  4534 Zr20    26.9641  33.2111  18.0333   Zr        1 RES1   0.0000
  4535 Zr21    26.5537  35.4577  -2.4585   Zr        1 RES1   0.0000
  4536 Zr22    35.8681  35.4577  11.3759   Zr        1 RES1   0.0000
  4537 Zr24    35.8681  26.9641  -2.4585   Zr        1 RES1   0.0000
  4538 Zr24    35.8681  26.9641  15.3763   Zr        1 RES1   0.0000
  4539 O2      23.0247  37.3015   0.1427   Oco2      1 RES1   0.0000
  4540 O4      21.5623  37.3015   8.7747   Oco2      1 RES1   0.0000
  4541 O6      17.9775  23.0247  19.4667   Oco2      1 RES1   0.0000
  4542 O8      26.6095  21.5623  19.4667   Oco2      1 RES1   0.0000
  4543 O10     37.3015  17.9775   5.1899   Oco2      1 RES1   0.0000
  4544 O12     37.3015  26.6095   3.7275   Oco2      1 RES1   0.0000
  4545 O18     35.5269  30.4797  -1.6319   O.2       1 RES1   0.0000
  4546 O20     26.8949  31.9421  -1.6319   O.2       1 RES1   0.0000
  4547 O50     23.3707  35.5394   2.2525   Oco2      1 RES1   0.0000
  4548 O52     21.2163  35.5394   6.6649   Oco2      1 RES1   0.0000
  4549 O54     20.0873  23.3707  17.7046   Oco2      1 RES1   0.0000
  4550 O56     24.4997  21.2163  17.7046   Oco2      1 RES1   0.0000
  4551 O58     35.5394  20.0873   5.5359   Oco2      1 RES1   0.0000
  4552 O60     35.5394  24.4997   3.3815   Oco2      1 RES1   0.0000
  4553 O66     33.4171  30.1337   0.1302   O.2       1 RES1   0.0000
  4554 O68     29.0047  32.2881   0.1302   O.2       1 RES1   0.0000
  4555 O73     21.5587  27.1785  -1.6158   O.2       1 RES1   0.0000
  4556 O74     23.0283  35.2433  -1.6158   O.2       1 RES1   0.0000
  4557 O85     31.9457  26.3259  19.4506   Oco2      1 RES1   0.0000
  4558 O86     30.4761  18.2611  19.4506   Oco2      1 RES1   0.0000
  4559 O89     37.2854  31.9457   8.4911   Oco2      1 RES1   0.0000
  4560 O90     37.2854  30.4761   0.4263   Oco2      1 RES1   0.0000
  4561 O93     26.3259  37.2854  14.1109   Oco2      1 RES1   0.0000
  4562 O94     18.2611  37.2854  12.6413   Oco2      1 RES1   0.0000
  4563 O97     37.0340  28.3877  -1.1539   O3        1 RES1   0.0000
  4564 O98     25.3878  34.0341  -1.1539   O3        1 RES1   0.0000
  4565 O100    37.0340  34.0341  10.0713   O3        1 RES1   0.0000
  4566 O104    27.9061  37.0340  16.1993   O3        1 RES1   0.0000
  4567 O108    34.0341  27.9061  19.1992   O3        1 RES1   0.0000
  4568 O109    34.3052  25.1167  18.9887   O3        1 RES1   0.0000
  4569 O110    28.1166  19.4703  18.9887   O3        1 RES1   0.0000
  4570 O113    36.8235  34.3052   7.2819   O3        1 RES1   0.0000
  4571 O114    36.8235  28.1166   1.6355   O3        1 RES1   0.0000
  4572 O117    25.1167  36.8235  -1.3644   O3        1 RES1   0.0000
  4573 O117    25.1167  36.8235  16.4704   O3        1 RES1   0.0000
  4574 O118    19.4703  36.8235  10.2818   O3        1 RES1   0.0000
  4575 O120    19.4703  25.5983  -1.3644   O3        1 RES1   0.0000
  4576 O153    37.0696  25.3522   1.4000   O3        1 RES1   0.0000
  4577 O154    25.3522  37.0696   1.4000   O3        1 RES1   0.0000
  4578 O156    37.0696  19.2348   7.5174   O3        1 RES1   0.0000
  4579 O157    34.2696  28.1522  -1.4000   O3        1 RES1   0.0000
  4580 O158    28.1522  34.2696  -1.4000   O3        1 RES1   0.0000
  4581 Zr3     24.2937  26.9507  26.5403   Zr        1 RES1   0.0000
  4582 Zr7     26.5403  24.2937  26.9507   Zr        1 RES1   0.0000
  4583 Zr11    26.9507  26.5403  24.2937   Zr        1 RES1   0.0000
  4584 Zr13    33.2111  26.5537  35.4577   Zr        1 RES1   0.0000
  4585 Zr15    29.2107  26.5537  26.9641   Zr        1 RES1   0.0000
  4586 Zr17    35.4577  33.2111  26.5537   Zr        1 RES1   0.0000
  4587 Zr19    26.9641  29.2107  26.5537   Zr        1 RES1   0.0000
  4588 Zr21    26.5537  35.4577  33.2111   Zr        1 RES1   0.0000
  4589 Zr23    26.5537  26.9641  29.2107   Zr        1 RES1   0.0000
  4590 O1      21.5623  25.1203  17.9775   Oco2      1 RES1   0.0000
  4591 O3      23.0247  25.1203  26.6095   Oco2      1 RES1   0.0000
  4592 O5      17.9775  21.5623  25.1203   Oco2      1 RES1   0.0000
  4593 O7      26.6095  23.0247  25.1203   Oco2      1 RES1   0.0000
  4594 O9      25.1203  17.9775  21.5623   Oco2      1 RES1   0.0000
  4595 O11     25.1203  26.6095  23.0247   Oco2      1 RES1   0.0000
  4596 O13     31.9421  28.3841  35.5269   Oco2      1 RES1   0.0000
  4597 O14     30.4797  34.0377  35.5269   Oco2      1 RES1   0.0000
  4598 O15     30.4797  28.3841  26.8949   Oco2      1 RES1   0.0000
  4599 O16     31.9421  34.0377  26.8949   Oco2      1 RES1   0.0000
  4600 O17     35.5269  31.9421  28.3841   Oco2      1 RES1   0.0000
  4601 O18     35.5269  30.4797  34.0377   Oco2      1 RES1   0.0000
  4602 O19     26.8949  30.4797  28.3841   Oco2      1 RES1   0.0000
  4603 O20     26.8949  31.9421  34.0377   Oco2      1 RES1   0.0000
  4604 O21     28.3841  35.5269  31.9421   Oco2      1 RES1   0.0000
  4605 O22     34.0377  35.5269  30.4797   Oco2      1 RES1   0.0000
  4606 O23     28.3841  26.8949  30.4797   Oco2      1 RES1   0.0000
  4607 O24     34.0377  26.8949  31.9421   Oco2      1 RES1   0.0000
  4608 O25     21.2305  28.9744  18.2735   Oco2      1 RES1   0.0000
  4609 O26     23.3565  33.4474  18.2735   Oco2      1 RES1   0.0000
  4610 O27     23.3565  28.9744  26.3135   Oco2      1 RES1   0.0000
  4611 O28     21.2305  33.4474  26.3135   Oco2      1 RES1   0.0000
  4612 O29     18.2735  21.2305  28.9744   Oco2      1 RES1   0.0000
  4613 O30     18.2735  23.3565  33.4474   Oco2      1 RES1   0.0000
  4614 O31     26.3135  23.3565  28.9744   Oco2      1 RES1   0.0000
  4615 O32     26.3135  21.2305  33.4474   Oco2      1 RES1   0.0000
  4616 O33     28.9744  18.2735  21.2305   Oco2      1 RES1   0.0000
  4617 O34     33.4474  18.2735  23.3565   Oco2      1 RES1   0.0000
  4618 O35     28.9744  26.3135  23.3565   Oco2      1 RES1   0.0000
  4619 O36     33.4474  26.3135  21.2305   Oco2      1 RES1   0.0000
  4620 O37     32.2739  24.5300  35.2309   Oco2      1 RES1   0.0000
  4621 O38     30.1479  20.0570  35.2309   Oco2      1 RES1   0.0000
  4622 O39     30.1479  24.5300  27.1909   Oco2      1 RES1   0.0000
  4623 O40     32.2739  20.0570  27.1909   Oco2      1 RES1   0.0000
  4624 O41     35.2309  32.2739  24.5300   Oco2      1 RES1   0.0000
  4625 O42     35.2309  30.1479  20.0570   Oco2      1 RES1   0.0000
  4626 O43     27.1909  30.1479  24.5300   Oco2      1 RES1   0.0000
  4627 O44     27.1909  32.2739  20.0570   Oco2      1 RES1   0.0000
  4628 O45     24.5300  35.2309  32.2739   Oco2      1 RES1   0.0000
  4629 O46     20.0570  35.2309  30.1479   Oco2      1 RES1   0.0000
  4630 O47     24.5300  27.1909  30.1479   Oco2      1 RES1   0.0000
  4631 O48     20.0570  27.1909  32.2739   Oco2      1 RES1   0.0000
  4632 O49     21.2163  26.8824  20.0873   Oco2      1 RES1   0.0000
  4633 O51     23.3707  26.8824  24.4997   Oco2      1 RES1   0.0000
  4634 O53     20.0873  21.2163  26.8824   Oco2      1 RES1   0.0000
  4635 O55     24.4997  23.3707  26.8824   Oco2      1 RES1   0.0000
  4636 O57     26.8824  20.0873  21.2163   Oco2      1 RES1   0.0000
  4637 O59     26.8824  24.4997  23.3707   Oco2      1 RES1   0.0000
  4638 O61     32.2881  26.6220  33.4171   Oco2      1 RES1   0.0000
  4639 O62     30.1337  35.7998  33.4171   Oco2      1 RES1   0.0000
  4640 O63     30.1337  26.6220  29.0047   Oco2      1 RES1   0.0000
  4641 O64     32.2881  35.7998  29.0047   Oco2      1 RES1   0.0000
  4642 O65     33.4171  32.2881  26.6220   Oco2      1 RES1   0.0000
  4643 O66     33.4171  30.1337  35.7998   Oco2      1 RES1   0.0000
  4644 O67     29.0047  30.1337  26.6220   Oco2      1 RES1   0.0000
  4645 O68     29.0047  32.2881  35.7998   Oco2      1 RES1   0.0000
  4646 O69     26.6220  33.4171  32.2881   Oco2      1 RES1   0.0000
  4647 O70     35.7998  33.4171  30.1337   Oco2      1 RES1   0.0000
  4648 O71     26.6220  29.0047  30.1337   Oco2      1 RES1   0.0000
  4649 O72     35.7998  29.0047  32.2881   Oco2      1 RES1   0.0000
  4650 O73     21.5587  27.1785  34.0538   Oco2      1 RES1   0.0000
  4651 O74     23.0283  35.2433  34.0538   Oco2      1 RES1   0.0000
  4652 O75     23.0283  27.1785  28.3680   Oco2      1 RES1   0.0000
  4653 O76     21.5587  35.2433  28.3680   Oco2      1 RES1   0.0000
  4654 O77     34.0538  21.5587  27.1785   Oco2      1 RES1   0.0000
  4655 O78     34.0538  23.0283  35.2433   Oco2      1 RES1   0.0000
  4656 O79     28.3680  23.0283  27.1785   Oco2      1 RES1   0.0000
  4657 O80     28.3680  21.5587  35.2433   Oco2      1 RES1   0.0000
  4658 O81     27.1785  34.0538  21.5587   Oco2      1 RES1   0.0000
  4659 O82     35.2433  34.0538  23.0283   Oco2      1 RES1   0.0000
  4660 O83     27.1785  28.3680  23.0283   Oco2      1 RES1   0.0000
  4661 O84     35.2433  28.3680  21.5587   Oco2      1 RES1   0.0000
  4662 O87     30.4761  26.3259  25.1364   Oco2      1 RES1   0.0000
  4663 O88     31.9457  18.2611  25.1364   Oco2      1 RES1   0.0000
  4664 O91     25.1364  30.4761  26.3259   Oco2      1 RES1   0.0000
  4665 O92     25.1364  31.9457  18.2611   Oco2      1 RES1   0.0000
  4666 O95     26.3259  25.1364  30.4761   Oco2      1 RES1   0.0000
  4667 O96     18.2611  25.1364  31.9457   Oco2      1 RES1   0.0000
  4668 C1      20.6955  30.1248  18.2628   C.2       1 RES1   0.0000
  4669 C2      23.8915  32.2970  18.2628   C.2       1 RES1   0.0000
  4670 C3      23.8915  30.1248  26.3242   C.2       1 RES1   0.0000
  4671 C4      20.6955  32.2970  26.3242   C.2       1 RES1   0.0000
  4672 C5      18.2628  20.6955  30.1248   C.2       1 RES1   0.0000
  4673 C6      18.2628  23.8915  32.2970   C.2       1 RES1   0.0000
  4674 C7      26.3242  23.8915  30.1248   C.2       1 RES1   0.0000
  4675 C8      26.3242  20.6955  32.2970   C.2       1 RES1   0.0000
  4676 C9      30.1248  18.2628  20.6955   C.2       1 RES1   0.0000
  4677 C10     32.2970  18.2628  23.8915   C.2       1 RES1   0.0000
  4678 C11     30.1248  26.3242  23.8915   C.2       1 RES1   0.0000
  4679 C12     32.2970  26.3242  20.6955   C.2       1 RES1   0.0000
  4680 C13     32.8089  23.3796  35.2416   C.2       1 RES1   0.0000
  4681 C14     29.6129  21.2074  35.2416   C.2       1 RES1   0.0000
  4682 C15     29.6129  23.3796  27.1802   C.2       1 RES1   0.0000
  4683 C16     32.8089  21.2074  27.1802   C.2       1 RES1   0.0000
  4684 C17     35.2416  32.8089  23.3796   C.2       1 RES1   0.0000
  4685 C18     35.2416  29.6129  21.2074   C.2       1 RES1   0.0000
  4686 C19     27.1802  29.6129  23.3796   C.2       1 RES1   0.0000
  4687 C20     27.1802  32.8089  21.2074   C.2       1 RES1   0.0000
  4688 C21     23.3796  35.2416  32.8089   C.2       1 RES1   0.0000
  4689 C22     21.2074  35.2416  29.6129   C.2       1 RES1   0.0000
  4690 C23     23.3796  27.1802  29.6129   C.2       1 RES1   0.0000
  4691 C24     21.2074  27.1802  32.8089   C.2       1 RES1   0.0000
  4692 C25     21.6550  31.3090  18.2682   C.2       1 RES1   0.0000
  4693 C26     22.9320  31.1128  18.2682   C.2       1 RES1   0.0000
  4694 C27     22.9320  31.3090  26.3188   C.2       1 RES1   0.0000
  4695 C28     21.6550  31.1128  26.3188   C.2       1 RES1   0.0000
  4696 C29     18.2682  21.6550  31.3090   C.2       1 RES1   0.0000
  4697 C30     18.2682  22.9320  31.1128   C.2       1 RES1   0.0000
  4698 C31     26.3188  22.9320  31.3090   C.2       1 RES1   0.0000
  4699 C32     26.3188  21.6550  31.1128   C.2       1 RES1   0.0000
  4700 C33     31.3090  18.2682  21.6550   C.2       1 RES1   0.0000
  4701 C34     31.1128  18.2682  22.9320   C.2       1 RES1   0.0000
  4702 C35     31.3090  26.3188  22.9320   C.2       1 RES1   0.0000
  4703 C36     31.1128  26.3188  21.6550   C.2       1 RES1   0.0000
  4704 C37     31.8494  22.1954  35.2362   C.2       1 RES1   0.0000
  4705 C38     30.5724  22.3916  35.2362   C.2       1 RES1   0.0000
  4706 C39     30.5724  22.1954  27.1856   C.2       1 RES1   0.0000
  4707 C40     31.8494  22.3916  27.1856   C.2       1 RES1   0.0000
  4708 C41     35.2362  31.8494  22.1954   C.2       1 RES1   0.0000
  4709 C42     35.2362  30.5724  22.3916   C.2       1 RES1   0.0000
  4710 C43     27.1856  30.5724  22.1954   C.2       1 RES1   0.0000
  4711 C44     27.1856  31.8494  22.3916   C.2       1 RES1   0.0000
  4712 C45     22.1954  35.2362  31.8494   C.2       1 RES1   0.0000
  4713 C46     22.3916  35.2362  30.5724   C.2       1 RES1   0.0000
  4714 C47     22.1954  27.1856  30.5724   C.2       1 RES1   0.0000
  4715 C48     22.3916  27.1856  31.8494   C.2       1 RES1   0.0000
  4716 H1      21.3215  32.1775  18.2700   H         1 RES1   0.0000
  4717 H2      23.2655  30.2443  18.2700   H         1 RES1   0.0000
  4718 H3      23.2655  32.1775  26.3170   H         1 RES1   0.0000
  4719 H4      21.3215  30.2443  26.3170   H         1 RES1   0.0000
  4720 H5      18.2700  21.3215  32.1775   H         1 RES1   0.0000
  4721 H6      18.2700  23.2655  30.2443   H         1 RES1   0.0000
  4722 H7      26.3170  23.2655  32.1775   H         1 RES1   0.0000
  4723 H8      26.3170  21.3215  30.2443   H         1 RES1   0.0000
  4724 H9      32.1775  18.2700  21.3215   H         1 RES1   0.0000
  4725 H10     30.2443  18.2700  23.2655   H         1 RES1   0.0000
  4726 H11     32.1775  26.3170  23.2655   H         1 RES1   0.0000
  4727 H12     30.2443  26.3170  21.3215   H         1 RES1   0.0000
  4728 H13     32.1829  21.3269  35.2344   H         1 RES1   0.0000
  4729 H14     30.2389  23.2601  35.2344   H         1 RES1   0.0000
  4730 H15     30.2389  21.3269  27.1874   H         1 RES1   0.0000
  4731 H16     32.1829  23.2601  27.1874   H         1 RES1   0.0000
  4732 H17     35.2344  32.1829  21.3269   H         1 RES1   0.0000
  4733 H18     35.2344  30.2389  23.2601   H         1 RES1   0.0000
  4734 H19     27.1874  30.2389  21.3269   H         1 RES1   0.0000
  4735 H20     27.1874  32.1829  23.2601   H         1 RES1   0.0000
  4736 H21     21.3269  35.2344  32.1829   H         1 RES1   0.0000
  4737 H22     23.2601  35.2344  30.2389   H         1 RES1   0.0000
  4738 H23     21.3269  27.1874  30.2389   H         1 RES1   0.0000
  4739 H24     23.2601  27.1874  32.1829   H         1 RES1   0.0000
  4740 C49     21.2341  23.8951  17.8348   C.2       1 RES1   0.0000
  4741 C50     23.3529  20.6919  17.8348   C.2       1 RES1   0.0000
  4742 C51     23.3529  23.8951  26.7522   C.2       1 RES1   0.0000
  4743 C52     21.2341  20.6919  26.7522   C.2       1 RES1   0.0000
  4744 C53     17.8348  21.2341  23.8951   C.2       1 RES1   0.0000
  4745 C54     17.8348  23.3529  20.6919   C.2       1 RES1   0.0000
  4746 C55     26.7522  23.3529  23.8951   C.2       1 RES1   0.0000
  4747 C56     26.7522  21.2341  20.6919   C.2       1 RES1   0.0000
  4748 C57     23.8951  17.8348  21.2341   C.2       1 RES1   0.0000
  4749 C58     20.6919  17.8348  23.3529   C.2       1 RES1   0.0000
  4750 C59     23.8951  26.7522  23.3529   C.2       1 RES1   0.0000
  4751 C60     20.6919  26.7522  21.2341   C.2       1 RES1   0.0000
  4752 C61     32.2703  29.6093  35.6696   C.2       1 RES1   0.0000
  4753 C62     30.1515  32.8125  35.6696   C.2       1 RES1   0.0000
  4754 C63     30.1515  29.6093  26.7522   C.2       1 RES1   0.0000
  4755 C64     32.2703  32.8125  26.7522   C.2       1 RES1   0.0000
  4756 C65     35.6696  32.2703  29.6093   C.2       1 RES1   0.0000
  4757 C66     35.6696  30.1515  32.8125   C.2       1 RES1   0.0000
  4758 C67     26.7522  30.1515  29.6093   C.2       1 RES1   0.0000
  4759 C68     26.7522  32.2703  32.8125   C.2       1 RES1   0.0000
  4760 C69     29.6093  35.6696  32.2703   C.2       1 RES1   0.0000
  4761 C70     32.8125  35.6696  30.1515   C.2       1 RES1   0.0000
  4762 C71     29.6093  26.7522  30.1515   C.2       1 RES1   0.0000
  4763 C72     32.8125  26.7522  32.2703   C.2       1 RES1   0.0000
  4764 C73     22.4130  22.9445  17.8366   C.2       1 RES1   0.0000
  4765 C74     22.1740  21.6425  17.8366   C.2       1 RES1   0.0000
  4766 C75     22.1740  22.9445  26.7504   C.2       1 RES1   0.0000
  4767 C76     22.4130  21.6425  26.7504   C.2       1 RES1   0.0000
  4768 C77     17.8366  22.4130  22.9445   C.2       1 RES1   0.0000
  4769 C78     17.8366  22.1740  21.6425   C.2       1 RES1   0.0000
  4770 C79     26.7504  22.1740  22.9445   C.2       1 RES1   0.0000
  4771 C80     26.7504  22.4130  21.6425   C.2       1 RES1   0.0000
  4772 C81     22.9445  17.8366  22.4130   C.2       1 RES1   0.0000
  4773 C82     21.6425  17.8366  22.1740   C.2       1 RES1   0.0000
  4774 C83     22.9445  26.7504  22.1740   C.2       1 RES1   0.0000
  4775 C84     21.6425  26.7504  22.4130   C.2       1 RES1   0.0000
  4776 C85     31.0914  30.5599  35.6678   C.2       1 RES1   0.0000
  4777 C86     31.3304  31.8619  35.6678   C.2       1 RES1   0.0000
  4778 C87     31.3304  30.5599  26.7540   C.2       1 RES1   0.0000
  4779 C88     31.0914  31.8619  26.7540   C.2       1 RES1   0.0000
  4780 C89     35.6678  31.0914  30.5599   C.2       1 RES1   0.0000
  4781 C90     35.6678  31.3304  31.8619   C.2       1 RES1   0.0000
  4782 C91     26.7540  31.3304  30.5599   C.2       1 RES1   0.0000
  4783 C92     26.7540  31.0914  31.8619   C.2       1 RES1   0.0000
  4784 C93     30.5599  35.6678  31.0914   C.2       1 RES1   0.0000
  4785 C94     31.8619  35.6678  31.3304   C.2       1 RES1   0.0000
  4786 C95     30.5599  26.7540  31.3304   C.2       1 RES1   0.0000
  4787 C96     31.8619  26.7540  31.0914   C.2       1 RES1   0.0000
  4788 H25     23.2851  23.2673  17.8366   H         1 RES1   0.0000
  4789 H26     21.3019  21.3197  17.8366   H         1 RES1   0.0000
  4790 H27     21.3019  23.2673  26.7504   H         1 RES1   0.0000
  4791 H28     23.2851  21.3197  26.7504   H         1 RES1   0.0000
  4792 H29     17.8366  23.2851  23.2673   H         1 RES1   0.0000
  4793 H30     17.8366  21.3019  21.3197   H         1 RES1   0.0000
  4794 H31     26.7504  21.3019  23.2673   H         1 RES1   0.0000
  4795 H32     26.7504  23.2851  21.3197   H         1 RES1   0.0000
  4796 H33     23.2673  17.8366  23.2851   H         1 RES1   0.0000
  4797 H34     21.3197  17.8366  21.3019   H         1 RES1   0.0000
  4798 H35     23.2673  26.7504  21.3019   H         1 RES1   0.0000
  4799 H36     21.3197  26.7504  23.2851   H         1 RES1   0.0000
  4800 H37     30.2193  30.2371  35.6678   H         1 RES1   0.0000
  4801 H38     32.2025  32.1847  35.6678   H         1 RES1   0.0000
  4802 H39     32.2025  30.2371  26.7540   H         1 RES1   0.0000
  4803 H40     30.2193  32.1847  26.7540   H         1 RES1   0.0000
  4804 H41     35.6678  30.2193  30.2371   H         1 RES1   0.0000
  4805 H42     35.6678  32.2025  32.1847   H         1 RES1   0.0000
  4806 H43     26.7540  32.2025  30.2371   H         1 RES1   0.0000
  4807 H44     26.7540  30.2193  32.1847   H         1 RES1   0.0000
  4808 H45     30.2371  35.6678  30.2193   H         1 RES1   0.0000
  4809 H46     32.1847  35.6678  32.2025   H         1 RES1   0.0000
  4810 H47     30.2371  26.7540  32.2025   H         1 RES1   0.0000
  4811 H48     32.1847  26.7540  30.2193   H         1 RES1   0.0000
  4812 O98     25.3878  34.0341  34.5157   O3        1 RES1   0.0000
  4813 O99     25.3878  28.3877  27.9061   O3        1 RES1   0.0000
  4814 O101    34.5157  19.1992  28.3877   O3        1 RES1   0.0000
  4815 O102    34.5157  25.3878  34.0341   O3        1 RES1   0.0000
  4816 O103    27.9061  25.3878  28.3877   O3        1 RES1   0.0000
  4817 O105    28.3877  34.5157  19.1992   O3        1 RES1   0.0000
  4818 O106    34.0341  34.5157  25.3878   O3        1 RES1   0.0000
  4819 O107    28.3877  27.9061  25.3878   O3        1 RES1   0.0000
  4820 O111    28.1166  25.1167  25.5983   O3        1 RES1   0.0000
  4821 O112    34.3052  19.4703  25.5983   O3        1 RES1   0.0000
  4822 O115    25.5983  28.1166  25.1167   O3        1 RES1   0.0000
  4823 O116    25.5983  34.3052  19.4703   O3        1 RES1   0.0000
  4824 O119    25.1167  25.5983  28.1166   O3        1 RES1   0.0000
  4825 O155    25.3522  25.3522  25.3522   O3        1 RES1   0.0000
  4826 O157    34.2696  28.1522  34.2696   O3        1 RES1   0.0000
  4827 O158    28.1522  34.2696  34.2696   O3        1 RES1   0.0000
  4828 O159    28.1522  28.1522  28.1522   O3        1 RES1   0.0000
  4829 O160    34.2696  34.2696  28.1522   O3        1 RES1   0.0000
  4830 Zr1     38.1281  26.9507  18.0467   Zr        1 RES1   0.0000
  4831 Zr2     24.2937  35.4711  35.8815   Zr        1 RES1   0.0000
  4832 Zr4     38.1281  35.4711  26.5403   Zr        1 RES1   0.0000
  4833 Zr5     35.8815  20.2933  26.9507   Zr        1 RES1   0.0000
  4834 Zr6     35.8815  24.2937  35.4711   Zr        1 RES1   0.0000
  4835 Zr8     26.5403  38.1281  35.4711   Zr        1 RES1   0.0000
  4836 Zr9     26.9507  35.8815  20.2933   Zr        1 RES1   0.0000
  4837 Zr10    35.4711  35.8815  24.2937   Zr        1 RES1   0.0000
  4838 Zr12    35.4711  26.5403  38.1281   Zr        1 RES1   0.0000
  4839 Zr14    29.2107  35.8681  35.4577   Zr        1 RES1   0.0000
  4840 Zr16    33.2111  35.8681  26.9641   Zr        1 RES1   0.0000
  4841 Zr18    35.4577  29.2107  35.8681   Zr        1 RES1   0.0000
  4842 Zr20    26.9641  33.2111  35.8681   Zr        1 RES1   0.0000
  4843 Zr22    35.8681  35.4577  29.2107   Zr        1 RES1   0.0000
  4844 Zr24    35.8681  26.9641  33.2111   Zr        1 RES1   0.0000
  4845 O2      23.0247  37.3015  17.9775   Oco2      1 RES1   0.0000
  4846 O4      21.5623  37.3015  26.6095   Oco2      1 RES1   0.0000
  4847 O6      17.9775  23.0247  37.3015   Oco2      1 RES1   0.0000
  4848 O8      26.6095  21.5623  37.3015   Oco2      1 RES1   0.0000
  4849 O10     37.3015  17.9775  23.0247   Oco2      1 RES1   0.0000
  4850 O12     37.3015  26.6095  21.5623   Oco2      1 RES1   0.0000
  4851 O50     23.3707  35.5394  20.0873   Oco2      1 RES1   0.0000
  4852 O52     21.2163  35.5394  24.4997   Oco2      1 RES1   0.0000
  4853 O54     20.0873  23.3707  35.5394   Oco2      1 RES1   0.0000
  4854 O56     24.4997  21.2163  35.5394   Oco2      1 RES1   0.0000
  4855 O58     35.5394  20.0873  23.3707   Oco2      1 RES1   0.0000
  4856 O60     35.5394  24.4997  21.2163   Oco2      1 RES1   0.0000
  4857 O85     31.9457  26.3259  37.2854   Oco2      1 RES1   0.0000
  4858 O86     30.4761  18.2611  37.2854   Oco2      1 RES1   0.0000
  4859 O89     37.2854  31.9457  26.3259   Oco2      1 RES1   0.0000
  4860 O90     37.2854  30.4761  18.2611   Oco2      1 RES1   0.0000
  4861 O93     26.3259  37.2854  31.9457   Oco2      1 RES1   0.0000
  4862 O94     18.2611  37.2854  30.4761   Oco2      1 RES1   0.0000
  4863 O97     37.0340  28.3877  16.6809   O3        1 RES1   0.0000
  4864 O100    37.0340  34.0341  27.9061   O3        1 RES1   0.0000
  4865 O104    27.9061  37.0340  34.0341   O3        1 RES1   0.0000
  4866 O108    34.0341  27.9061  37.0340   O3        1 RES1   0.0000
  4867 O109    34.3052  25.1167  36.8235   O3        1 RES1   0.0000
  4868 O110    28.1166  19.4703  36.8235   O3        1 RES1   0.0000
  4869 O113    36.8235  34.3052  25.1167   O3        1 RES1   0.0000
  4870 O114    36.8235  28.1166  19.4703   O3        1 RES1   0.0000
  4871 O117    25.1167  36.8235  34.3052   O3        1 RES1   0.0000
  4872 O118    19.4703  36.8235  28.1166   O3        1 RES1   0.0000
  4873 O120    19.4703  25.5983  16.4704   O3        1 RES1   0.0000
  4874 O153    37.0696  25.3522  19.2348   O3        1 RES1   0.0000
  4875 O154    25.3522  37.0696  19.2348   O3        1 RES1   0.0000
  4876 O156    37.0696  19.2348  25.3522   O3        1 RES1   0.0000
  4877 Zr3     24.2937  26.9507  44.3751   Zr        1 RES1   0.0000
  4878 Zr7     26.5403  24.2937  44.7855   Zr        1 RES1   0.0000
  4879 Zr11    26.9507  26.5403  42.1285   Zr        1 RES1   0.0000
  4880 Zr13    33.2111  26.5537  53.2925   Zr        1 RES1   0.0000
  4881 Zr15    29.2107  26.5537  44.7989   Zr        1 RES1   0.0000
  4882 Zr17    35.4577  33.2111  44.3885   Zr        1 RES1   0.0000
  4883 Zr19    26.9641  29.2107  44.3885   Zr        1 RES1   0.0000
  4884 Zr21    26.5537  35.4577  51.0459   Zr        1 RES1   0.0000
  4885 Zr23    26.5537  26.9641  47.0455   Zr        1 RES1   0.0000
  4886 O1      21.5623  25.1203  35.8123   Oco2      1 RES1   0.0000
  4887 O3      23.0247  25.1203  44.4443   Oco2      1 RES1   0.0000
  4888 O5      17.9775  21.5623  42.9551   Oco2      1 RES1   0.0000
  4889 O7      26.6095  23.0247  42.9551   Oco2      1 RES1   0.0000
  4890 O9      25.1203  17.9775  39.3971   Oco2      1 RES1   0.0000
  4891 O11     25.1203  26.6095  40.8595   Oco2      1 RES1   0.0000
  4892 O13     31.9421  28.3841  53.3617   Oco2      1 RES1   0.0000
  4893 O14     30.4797  34.0377  53.3617   Oco2      1 RES1   0.0000
  4894 O15     30.4797  28.3841  44.7297   Oco2      1 RES1   0.0000
  4895 O16     31.9421  34.0377  44.7297   Oco2      1 RES1   0.0000
  4896 O17     35.5269  31.9421  46.2189   Oco2      1 RES1   0.0000
  4897 O18     35.5269  30.4797  51.8725   Oco2      1 RES1   0.0000
  4898 O19     26.8949  30.4797  46.2189   Oco2      1 RES1   0.0000
  4899 O20     26.8949  31.9421  51.8725   Oco2      1 RES1   0.0000
  4900 O21     28.3841  35.5269  49.7769   Oco2      1 RES1   0.0000
  4901 O22     34.0377  35.5269  48.3145   Oco2      1 RES1   0.0000
  4902 O23     28.3841  26.8949  48.3145   Oco2      1 RES1   0.0000
  4903 O24     34.0377  26.8949  49.7769   Oco2      1 RES1   0.0000
  4904 O25     21.2305  28.9744  36.1083   Oco2      1 RES1   0.0000
  4905 O26     23.3565  33.4474  36.1083   Oco2      1 RES1   0.0000
  4906 O27     23.3565  28.9744  44.1483   Oco2      1 RES1   0.0000
  4907 O28     21.2305  33.4474  44.1483   Oco2      1 RES1   0.0000
  4908 O29     18.2735  21.2305  46.8092   Oco2      1 RES1   0.0000
  4909 O30     18.2735  23.3565  51.2822   Oco2      1 RES1   0.0000
  4910 O31     26.3135  23.3565  46.8092   Oco2      1 RES1   0.0000
  4911 O32     26.3135  21.2305  51.2822   Oco2      1 RES1   0.0000
  4912 O33     28.9744  18.2735  39.0653   Oco2      1 RES1   0.0000
  4913 O34     33.4474  18.2735  41.1913   Oco2      1 RES1   0.0000
  4914 O35     28.9744  26.3135  41.1913   Oco2      1 RES1   0.0000
  4915 O36     33.4474  26.3135  39.0653   Oco2      1 RES1   0.0000
  4916 O37     32.2739  24.5300  53.0657   Oco2      1 RES1   0.0000
  4917 O38     30.1479  20.0570  53.0657   Oco2      1 RES1   0.0000
  4918 O39     30.1479  24.5300  45.0257   Oco2      1 RES1   0.0000
  4919 O40     32.2739  20.0570  45.0257   Oco2      1 RES1   0.0000
  4920 O41     35.2309  32.2739  42.3648   Oco2      1 RES1   0.0000
  4921 O42     35.2309  30.1479  37.8918   Oco2      1 RES1   0.0000
  4922 O43     27.1909  30.1479  42.3648   Oco2      1 RES1   0.0000
  4923 O44     27.1909  32.2739  37.8918   Oco2      1 RES1   0.0000
  4924 O45     24.5300  35.2309  50.1087   Oco2      1 RES1   0.0000
  4925 O46     20.0570  35.2309  47.9827   Oco2      1 RES1   0.0000
  4926 O47     24.5300  27.1909  47.9827   Oco2      1 RES1   0.0000
  4927 O48     20.0570  27.1909  50.1087   Oco2      1 RES1   0.0000
  4928 O49     21.2163  26.8824  37.9221   Oco2      1 RES1   0.0000
  4929 O51     23.3707  26.8824  42.3345   Oco2      1 RES1   0.0000
  4930 O53     20.0873  21.2163  44.7172   Oco2      1 RES1   0.0000
  4931 O55     24.4997  23.3707  44.7172   Oco2      1 RES1   0.0000
  4932 O57     26.8824  20.0873  39.0511   Oco2      1 RES1   0.0000
  4933 O59     26.8824  24.4997  41.2055   Oco2      1 RES1   0.0000
  4934 O61     32.2881  26.6220  51.2519   Oco2      1 RES1   0.0000
  4935 O62     30.1337  35.7998  51.2519   Oco2      1 RES1   0.0000
  4936 O63     30.1337  26.6220  46.8395   Oco2      1 RES1   0.0000
  4937 O64     32.2881  35.7998  46.8395   Oco2      1 RES1   0.0000
  4938 O65     33.4171  32.2881  44.4568   Oco2      1 RES1   0.0000
  4939 O66     33.4171  30.1337  53.6346   Oco2      1 RES1   0.0000
  4940 O67     29.0047  30.1337  44.4568   Oco2      1 RES1   0.0000
  4941 O68     29.0047  32.2881  53.6346   Oco2      1 RES1   0.0000
  4942 O69     26.6220  33.4171  50.1229   Oco2      1 RES1   0.0000
  4943 O70     35.7998  33.4171  47.9685   Oco2      1 RES1   0.0000
  4944 O71     26.6220  29.0047  47.9685   Oco2      1 RES1   0.0000
  4945 O72     35.7998  29.0047  50.1229   Oco2      1 RES1   0.0000
  4946 O73     21.5587  27.1785  51.8886   Oco2      1 RES1   0.0000
  4947 O74     23.0283  35.2433  51.8886   Oco2      1 RES1   0.0000
  4948 O75     23.0283  27.1785  46.2028   Oco2      1 RES1   0.0000
  4949 O76     21.5587  35.2433  46.2028   Oco2      1 RES1   0.0000
  4950 O77     34.0538  21.5587  45.0133   Oco2      1 RES1   0.0000
  4951 O78     34.0538  23.0283  53.0781   Oco2      1 RES1   0.0000
  4952 O79     28.3680  23.0283  45.0133   Oco2      1 RES1   0.0000
  4953 O80     28.3680  21.5587  53.0781   Oco2      1 RES1   0.0000
  4954 O81     27.1785  34.0538  39.3935   Oco2      1 RES1   0.0000
  4955 O82     35.2433  34.0538  40.8631   Oco2      1 RES1   0.0000
  4956 O83     27.1785  28.3680  40.8631   Oco2      1 RES1   0.0000
  4957 O84     35.2433  28.3680  39.3935   Oco2      1 RES1   0.0000
  4958 O87     30.4761  26.3259  42.9712   Oco2      1 RES1   0.0000
  4959 O88     31.9457  18.2611  42.9712   Oco2      1 RES1   0.0000
  4960 O91     25.1364  30.4761  44.1607   Oco2      1 RES1   0.0000
  4961 O92     25.1364  31.9457  36.0959   Oco2      1 RES1   0.0000
  4962 O95     26.3259  25.1364  48.3109   Oco2      1 RES1   0.0000
  4963 O96     18.2611  25.1364  49.7805   Oco2      1 RES1   0.0000
  4964 C1      20.6955  30.1248  36.0976   C.2       1 RES1   0.0000
  4965 C2      23.8915  32.2970  36.0976   C.2       1 RES1   0.0000
  4966 C3      23.8915  30.1248  44.1590   C.2       1 RES1   0.0000
  4967 C4      20.6955  32.2970  44.1590   C.2       1 RES1   0.0000
  4968 C5      18.2628  20.6955  47.9596   C.2       1 RES1   0.0000
  4969 C6      18.2628  23.8915  50.1318   C.2       1 RES1   0.0000
  4970 C7      26.3242  23.8915  47.9596   C.2       1 RES1   0.0000
  4971 C8      26.3242  20.6955  50.1318   C.2       1 RES1   0.0000
  4972 C9      30.1248  18.2628  38.5303   C.2       1 RES1   0.0000
  4973 C10     32.2970  18.2628  41.7263   C.2       1 RES1   0.0000
  4974 C11     30.1248  26.3242  41.7263   C.2       1 RES1   0.0000
  4975 C12     32.2970  26.3242  38.5303   C.2       1 RES1   0.0000
  4976 C13     32.8089  23.3796  53.0764   C.2       1 RES1   0.0000
  4977 C14     29.6129  21.2074  53.0764   C.2       1 RES1   0.0000
  4978 C15     29.6129  23.3796  45.0150   C.2       1 RES1   0.0000
  4979 C16     32.8089  21.2074  45.0150   C.2       1 RES1   0.0000
  4980 C17     35.2416  32.8089  41.2144   C.2       1 RES1   0.0000
  4981 C18     35.2416  29.6129  39.0422   C.2       1 RES1   0.0000
  4982 C19     27.1802  29.6129  41.2144   C.2       1 RES1   0.0000
  4983 C20     27.1802  32.8089  39.0422   C.2       1 RES1   0.0000
  4984 C21     23.3796  35.2416  50.6437   C.2       1 RES1   0.0000
  4985 C22     21.2074  35.2416  47.4477   C.2       1 RES1   0.0000
  4986 C23     23.3796  27.1802  47.4477   C.2       1 RES1   0.0000
  4987 C24     21.2074  27.1802  50.6437   C.2       1 RES1   0.0000
  4988 C25     21.6550  31.3090  36.1030   C.2       1 RES1   0.0000
  4989 C26     22.9320  31.1128  36.1030   C.2       1 RES1   0.0000
  4990 C27     22.9320  31.3090  44.1536   C.2       1 RES1   0.0000
  4991 C28     21.6550  31.1128  44.1536   C.2       1 RES1   0.0000
  4992 C29     18.2682  21.6550  49.1438   C.2       1 RES1   0.0000
  4993 C30     18.2682  22.9320  48.9476   C.2       1 RES1   0.0000
  4994 C31     26.3188  22.9320  49.1438   C.2       1 RES1   0.0000
  4995 C32     26.3188  21.6550  48.9476   C.2       1 RES1   0.0000
  4996 C33     31.3090  18.2682  39.4898   C.2       1 RES1   0.0000
  4997 C34     31.1128  18.2682  40.7668   C.2       1 RES1   0.0000
  4998 C35     31.3090  26.3188  40.7668   C.2       1 RES1   0.0000
  4999 C36     31.1128  26.3188  39.4898   C.2       1 RES1   0.0000
  5000 C37     31.8494  22.1954  53.0710   C.2       1 RES1   0.0000
  5001 C38     30.5724  22.3916  53.0710   C.2       1 RES1   0.0000
  5002 C39     30.5724  22.1954  45.0204   C.2       1 RES1   0.0000
  5003 C40     31.8494  22.3916  45.0204   C.2       1 RES1   0.0000
  5004 C41     35.2362  31.8494  40.0302   C.2       1 RES1   0.0000
  5005 C42     35.2362  30.5724  40.2264   C.2       1 RES1   0.0000
  5006 C43     27.1856  30.5724  40.0302   C.2       1 RES1   0.0000
  5007 C44     27.1856  31.8494  40.2264   C.2       1 RES1   0.0000
  5008 C45     22.1954  35.2362  49.6842   C.2       1 RES1   0.0000
  5009 C46     22.3916  35.2362  48.4072   C.2       1 RES1   0.0000
  5010 C47     22.1954  27.1856  48.4072   C.2       1 RES1   0.0000
  5011 C48     22.3916  27.1856  49.6842   C.2       1 RES1   0.0000
  5012 H1      21.3215  32.1775  36.1048   H         1 RES1   0.0000
  5013 H2      23.2655  30.2443  36.1048   H         1 RES1   0.0000
  5014 H3      23.2655  32.1775  44.1518   H         1 RES1   0.0000
  5015 H4      21.3215  30.2443  44.1518   H         1 RES1   0.0000
  5016 H5      18.2700  21.3215  50.0123   H         1 RES1   0.0000
  5017 H6      18.2700  23.2655  48.0791   H         1 RES1   0.0000
  5018 H7      26.3170  23.2655  50.0123   H         1 RES1   0.0000
  5019 H8      26.3170  21.3215  48.0791   H         1 RES1   0.0000
  5020 H9      32.1775  18.2700  39.1563   H         1 RES1   0.0000
  5021 H10     30.2443  18.2700  41.1003   H         1 RES1   0.0000
  5022 H11     32.1775  26.3170  41.1003   H         1 RES1   0.0000
  5023 H12     30.2443  26.3170  39.1563   H         1 RES1   0.0000
  5024 H13     32.1829  21.3269  53.0692   H         1 RES1   0.0000
  5025 H14     30.2389  23.2601  53.0692   H         1 RES1   0.0000
  5026 H15     30.2389  21.3269  45.0222   H         1 RES1   0.0000
  5027 H16     32.1829  23.2601  45.0222   H         1 RES1   0.0000
  5028 H17     35.2344  32.1829  39.1617   H         1 RES1   0.0000
  5029 H18     35.2344  30.2389  41.0949   H         1 RES1   0.0000
  5030 H19     27.1874  30.2389  39.1617   H         1 RES1   0.0000
  5031 H20     27.1874  32.1829  41.0949   H         1 RES1   0.0000
  5032 H21     21.3269  35.2344  50.0177   H         1 RES1   0.0000
  5033 H22     23.2601  35.2344  48.0737   H         1 RES1   0.0000
  5034 H23     21.3269  27.1874  48.0737   H         1 RES1   0.0000
  5035 H24     23.2601  27.1874  50.0177   H         1 RES1   0.0000
  5036 C49     21.2341  23.8951  35.6696   C.2       1 RES1   0.0000
  5037 C50     23.3529  20.6919  35.6696   C.2       1 RES1   0.0000
  5038 C51     23.3529  23.8951  44.5870   C.2       1 RES1   0.0000
  5039 C52     21.2341  20.6919  44.5870   C.2       1 RES1   0.0000
  5040 C53     17.8348  21.2341  41.7299   C.2       1 RES1   0.0000
  5041 C54     17.8348  23.3529  38.5267   C.2       1 RES1   0.0000
  5042 C55     26.7522  23.3529  41.7299   C.2       1 RES1   0.0000
  5043 C56     26.7522  21.2341  38.5267   C.2       1 RES1   0.0000
  5044 C57     23.8951  17.8348  39.0689   C.2       1 RES1   0.0000
  5045 C58     20.6919  17.8348  41.1877   C.2       1 RES1   0.0000
  5046 C59     23.8951  26.7522  41.1877   C.2       1 RES1   0.0000
  5047 C60     20.6919  26.7522  39.0689   C.2       1 RES1   0.0000
  5048 C61     32.2703  29.6093  53.5044   C.2       1 RES1   0.0000
  5049 C62     30.1515  32.8125  53.5044   C.2       1 RES1   0.0000
  5050 C63     30.1515  29.6093  44.5870   C.2       1 RES1   0.0000
  5051 C64     32.2703  32.8125  44.5870   C.2       1 RES1   0.0000
  5052 C65     35.6696  32.2703  47.4441   C.2       1 RES1   0.0000
  5053 C66     35.6696  30.1515  50.6473   C.2       1 RES1   0.0000
  5054 C67     26.7522  30.1515  47.4441   C.2       1 RES1   0.0000
  5055 C68     26.7522  32.2703  50.6473   C.2       1 RES1   0.0000
  5056 C69     29.6093  35.6696  50.1051   C.2       1 RES1   0.0000
  5057 C70     32.8125  35.6696  47.9863   C.2       1 RES1   0.0000
  5058 C71     29.6093  26.7522  47.9863   C.2       1 RES1   0.0000
  5059 C72     32.8125  26.7522  50.1051   C.2       1 RES1   0.0000
  5060 C73     22.4130  22.9445  35.6714   C.2       1 RES1   0.0000
  5061 C74     22.1740  21.6425  35.6714   C.2       1 RES1   0.0000
  5062 C75     22.1740  22.9445  44.5852   C.2       1 RES1   0.0000
  5063 C76     22.4130  21.6425  44.5852   C.2       1 RES1   0.0000
  5064 C77     17.8366  22.4130  40.7793   C.2       1 RES1   0.0000
  5065 C78     17.8366  22.1740  39.4773   C.2       1 RES1   0.0000
  5066 C79     26.7504  22.1740  40.7793   C.2       1 RES1   0.0000
  5067 C80     26.7504  22.4130  39.4773   C.2       1 RES1   0.0000
  5068 C81     22.9445  17.8366  40.2478   C.2       1 RES1   0.0000
  5069 C82     21.6425  17.8366  40.0088   C.2       1 RES1   0.0000
  5070 C83     22.9445  26.7504  40.0088   C.2       1 RES1   0.0000
  5071 C84     21.6425  26.7504  40.2478   C.2       1 RES1   0.0000
  5072 C85     31.0914  30.5599  53.5026   C.2       1 RES1   0.0000
  5073 C86     31.3304  31.8619  53.5026   C.2       1 RES1   0.0000
  5074 C87     31.3304  30.5599  44.5888   C.2       1 RES1   0.0000
  5075 C88     31.0914  31.8619  44.5888   C.2       1 RES1   0.0000
  5076 C89     35.6678  31.0914  48.3947   C.2       1 RES1   0.0000
  5077 C90     35.6678  31.3304  49.6967   C.2       1 RES1   0.0000
  5078 C91     26.7540  31.3304  48.3947   C.2       1 RES1   0.0000
  5079 C92     26.7540  31.0914  49.6967   C.2       1 RES1   0.0000
  5080 C93     30.5599  35.6678  48.9262   C.2       1 RES1   0.0000
  5081 C94     31.8619  35.6678  49.1652   C.2       1 RES1   0.0000
  5082 C95     30.5599  26.7540  49.1652   C.2       1 RES1   0.0000
  5083 C96     31.8619  26.7540  48.9262   C.2       1 RES1   0.0000
  5084 H25     23.2851  23.2673  35.6714   H         1 RES1   0.0000
  5085 H26     21.3019  21.3197  35.6714   H         1 RES1   0.0000
  5086 H27     21.3019  23.2673  44.5852   H         1 RES1   0.0000
  5087 H28     23.2851  21.3197  44.5852   H         1 RES1   0.0000
  5088 H29     17.8366  23.2851  41.1021   H         1 RES1   0.0000
  5089 H30     17.8366  21.3019  39.1545   H         1 RES1   0.0000
  5090 H31     26.7504  21.3019  41.1021   H         1 RES1   0.0000
  5091 H32     26.7504  23.2851  39.1545   H         1 RES1   0.0000
  5092 H33     23.2673  17.8366  41.1199   H         1 RES1   0.0000
  5093 H34     21.3197  17.8366  39.1367   H         1 RES1   0.0000
  5094 H35     23.2673  26.7504  39.1367   H         1 RES1   0.0000
  5095 H36     21.3197  26.7504  41.1199   H         1 RES1   0.0000
  5096 H37     30.2193  30.2371  53.5026   H         1 RES1   0.0000
  5097 H38     32.2025  32.1847  53.5026   H         1 RES1   0.0000
  5098 H39     32.2025  30.2371  44.5888   H         1 RES1   0.0000
  5099 H40     30.2193  32.1847  44.5888   H         1 RES1   0.0000
  5100 H41     35.6678  30.2193  48.0719   H         1 RES1   0.0000
  5101 H42     35.6678  32.2025  50.0195   H         1 RES1   0.0000
  5102 H43     26.7540  32.2025  48.0719   H         1 RES1   0.0000
  5103 H44     26.7540  30.2193  50.0195   H         1 RES1   0.0000
  5104 H45     30.2371  35.6678  48.0541   H         1 RES1   0.0000
  5105 H46     32.1847  35.6678  50.0373   H         1 RES1   0.0000
  5106 H47     30.2371  26.7540  50.0373   H         1 RES1   0.0000
  5107 H48     32.1847  26.7540  48.0541   H         1 RES1   0.0000
  5108 O97     19.1992  28.3877  52.3505   O3        1 RES1   0.0000
  5109 O98     25.3878  34.0341  52.3505   O3        1 RES1   0.0000
  5110 O99     25.3878  28.3877  45.7409   O3        1 RES1   0.0000
  5111 O101    34.5157  19.1992  46.2225   O3        1 RES1   0.0000
  5112 O102    34.5157  25.3878  51.8689   O3        1 RES1   0.0000
  5113 O103    27.9061  25.3878  46.2225   O3        1 RES1   0.0000
  5114 O105    28.3877  34.5157  37.0340   O3        1 RES1   0.0000
  5115 O106    34.0341  34.5157  43.2226   O3        1 RES1   0.0000
  5116 O107    28.3877  27.9061  43.2226   O3        1 RES1   0.0000
  5117 O111    28.1166  25.1167  43.4331   O3        1 RES1   0.0000
  5118 O112    34.3052  19.4703  43.4331   O3        1 RES1   0.0000
  5119 O115    25.5983  28.1166  42.9515   O3        1 RES1   0.0000
  5120 O116    25.5983  34.3052  37.3051   O3        1 RES1   0.0000
  5121 O119    25.1167  25.5983  45.9514   O3        1 RES1   0.0000
  5122 O155    25.3522  25.3522  43.1870   O3        1 RES1   0.0000
  5123 O157    34.2696  28.1522  52.1044   O3        1 RES1   0.0000
  5124 O158    28.1522  34.2696  52.1044   O3        1 RES1   0.0000
  5125 O159    28.1522  28.1522  45.9870   O3        1 RES1   0.0000
  5126 O160    34.2696  34.2696  45.9870   O3        1 RES1   0.0000
  5127 Zr1     20.2933  26.9507  53.7163   Zr        1 RES1   0.0000
  5128 Zr1     38.1281  26.9507  35.8815   Zr        1 RES1   0.0000
  5129 Zr2     24.2937  35.4711  53.7163   Zr        1 RES1   0.0000
  5130 Zr4     38.1281  35.4711  44.3751   Zr        1 RES1   0.0000
  5131 Zr5     35.8815  20.2933  44.7855   Zr        1 RES1   0.0000
  5132 Zr6     35.8815  24.2937  53.3059   Zr        1 RES1   0.0000
  5133 Zr8     26.5403  38.1281  53.3059   Zr        1 RES1   0.0000
  5134 Zr9     26.9507  18.0467  55.9629   Zr        1 RES1   0.0000
  5135 Zr9     26.9507  35.8815  38.1281   Zr        1 RES1   0.0000
  5136 Zr10    35.4711  35.8815  42.1285   Zr        1 RES1   0.0000
  5137 Zr12    35.4711  26.5403  55.9629   Zr        1 RES1   0.0000
  5138 Zr14    29.2107  35.8681  53.2925   Zr        1 RES1   0.0000
  5139 Zr16    33.2111  35.8681  44.7989   Zr        1 RES1   0.0000
  5140 Zr18    35.4577  29.2107  53.7029   Zr        1 RES1   0.0000
  5141 Zr20    26.9641  33.2111  53.7029   Zr        1 RES1   0.0000
  5142 Zr22    35.8681  35.4577  47.0455   Zr        1 RES1   0.0000
  5143 Zr24    35.8681  26.9641  51.0459   Zr        1 RES1   0.0000
  5144 O2      23.0247  37.3015  35.8123   Oco2      1 RES1   0.0000
  5145 O4      21.5623  37.3015  44.4443   Oco2      1 RES1   0.0000
  5146 O6      17.9775  23.0247  55.1363   O.2       1 RES1   0.0000
  5147 O8      26.6095  21.5623  55.1363   O.2       1 RES1   0.0000
  5148 O10     37.3015  17.9775  40.8595   Oco2      1 RES1   0.0000
  5149 O12     37.3015  26.6095  39.3971   Oco2      1 RES1   0.0000
  5150 O50     23.3707  35.5394  37.9221   Oco2      1 RES1   0.0000
  5151 O52     21.2163  35.5394  42.3345   Oco2      1 RES1   0.0000
  5152 O54     20.0873  23.3707  53.3742   O.2       1 RES1   0.0000
  5153 O56     24.4997  21.2163  53.3742   O.2       1 RES1   0.0000
  5154 O58     35.5394  20.0873  41.2055   Oco2      1 RES1   0.0000
  5155 O60     35.5394  24.4997  39.0511   Oco2      1 RES1   0.0000
  5156 O85     31.9457  26.3259  55.1202   O.2       1 RES1   0.0000
  5157 O86     30.4761  18.2611  55.1202   O.2       1 RES1   0.0000
  5158 O89     37.2854  31.9457  44.1607   Oco2      1 RES1   0.0000
  5159 O90     37.2854  30.4761  36.0959   Oco2      1 RES1   0.0000
  5160 O93     26.3259  37.2854  49.7805   Oco2      1 RES1   0.0000
  5161 O94     18.2611  37.2854  48.3109   Oco2      1 RES1   0.0000
  5162 O97     37.0340  28.3877  34.5157   O3        1 RES1   0.0000
  5163 O100    37.0340  34.0341  45.7409   O3        1 RES1   0.0000
  5164 O104    27.9061  37.0340  51.8689   O3        1 RES1   0.0000
  5165 O105    28.3877  16.6809  54.8688   O3        1 RES1   0.0000
  5166 O108    34.0341  27.9061  54.8688   O3        1 RES1   0.0000
  5167 O109    34.3052  25.1167  54.6583   O3        1 RES1   0.0000
  5168 O110    28.1166  19.4703  54.6583   O3        1 RES1   0.0000
  5169 O113    36.8235  34.3052  42.9515   O3        1 RES1   0.0000
  5170 O114    36.8235  28.1166  37.3051   O3        1 RES1   0.0000
  5171 O117    25.1167  36.8235  52.1400   O3        1 RES1   0.0000
  5172 O118    19.4703  36.8235  45.9514   O3        1 RES1   0.0000
  5173 O120    19.4703  25.5983  34.3052   O3        1 RES1   0.0000
  5174 O153    19.2348  25.3522  54.9044   O3        1 RES1   0.0000
  5175 O153    37.0696  25.3522  37.0696   O3        1 RES1   0.0000
  5176 O154    25.3522  19.2348  54.9044   O3        1 RES1   0.0000
  5177 O154    25.3522  37.0696  37.0696   O3        1 RES1   0.0000
  5178 O156    37.0696  19.2348  43.1870   O3        1 RES1   0.0000
  5179 Zr2     24.2937  53.3059   0.2119   Zr        1 RES1   0.0000
  5180 Zr3     24.2937  44.7855   8.7055   Zr        1 RES1   0.0000
  5181 Zr7     26.5403  42.1285   9.1159   Zr        1 RES1   0.0000
  5182 Zr11    26.9507  44.3751   6.4589   Zr        1 RES1   0.0000
  5183 Zr12    35.4711  44.3751   2.4585   Zr        1 RES1   0.0000
  5184 Zr13    33.2111  44.3885  17.6229   Zr        1 RES1   0.0000
  5185 Zr15    29.2107  44.3885   9.1293   Zr        1 RES1   0.0000
  5186 Zr17    35.4577  51.0459   8.7189   Zr        1 RES1   0.0000
  5187 Zr18    35.4577  47.0455   0.1985   Zr        1 RES1   0.0000
  5188 Zr19    26.9641  47.0455   8.7189   Zr        1 RES1   0.0000
  5189 Zr20    26.9641  51.0459   0.1985   Zr        1 RES1   0.0000
  5190 Zr21    26.5537  53.2925  15.3763   Zr        1 RES1   0.0000
  5191 Zr23    26.5537  44.7989  11.3759   Zr        1 RES1   0.0000
  5192 O1      21.5623  42.9551   0.1427   Oco2      1 RES1   0.0000
  5193 O3      23.0247  42.9551   8.7747   Oco2      1 RES1   0.0000
  5194 O5      17.9775  39.3971   7.2855   Oco2      1 RES1   0.0000
  5195 O6      17.9775  40.8595   1.6319   Oco2      1 RES1   0.0000
  5196 O7      26.6095  40.8595   7.2855   Oco2      1 RES1   0.0000
  5197 O8      26.6095  39.3971   1.6319   Oco2      1 RES1   0.0000
  5198 O9      25.1203  35.8123   3.7275   Oco2      1 RES1   0.0000
  5199 O11     25.1203  44.4443   5.1899   Oco2      1 RES1   0.0000
  5200 O13     31.9421  46.2189  17.6921   Oco2      1 RES1   0.0000
  5201 O14     30.4797  51.8725  17.6921   Oco2      1 RES1   0.0000
  5202 O15     30.4797  46.2189   9.0601   Oco2      1 RES1   0.0000
  5203 O16     31.9421  51.8725   9.0601   Oco2      1 RES1   0.0000
  5204 O17     35.5269  49.7769  10.5493   Oco2      1 RES1   0.0000
  5205 O18     35.5269  48.3145  16.2029   Oco2      1 RES1   0.0000
  5206 O19     26.8949  48.3145  10.5493   Oco2      1 RES1   0.0000
  5207 O20     26.8949  49.7769  16.2029   Oco2      1 RES1   0.0000
  5208 O21     28.3841  53.3617  14.1073   Oco2      1 RES1   0.0000
  5209 O22     34.0377  53.3617  12.6449   Oco2      1 RES1   0.0000
  5210 O23     28.3841  44.7297  12.6449   Oco2      1 RES1   0.0000
  5211 O24     34.0377  44.7297  14.1073   Oco2      1 RES1   0.0000
  5212 O25     21.2305  46.8092   0.4387   Oco2      1 RES1   0.0000
  5213 O26     23.3565  51.2822   0.4387   Oco2      1 RES1   0.0000
  5214 O27     23.3565  46.8092   8.4787   Oco2      1 RES1   0.0000
  5215 O28     21.2305  51.2822   8.4787   Oco2      1 RES1   0.0000
  5216 O29     18.2735  39.0653  11.1396   Oco2      1 RES1   0.0000
  5217 O30     18.2735  41.1913  15.6126   Oco2      1 RES1   0.0000
  5218 O31     26.3135  41.1913  11.1396   Oco2      1 RES1   0.0000
  5219 O32     26.3135  39.0653  15.6126   Oco2      1 RES1   0.0000
  5220 O33     28.9744  36.1083   3.3957   Oco2      1 RES1   0.0000
  5221 O34     33.4474  36.1083   5.5217   Oco2      1 RES1   0.0000
  5222 O35     28.9744  44.1483   5.5217   Oco2      1 RES1   0.0000
  5223 O36     33.4474  44.1483   3.3957   Oco2      1 RES1   0.0000
  5224 O37     32.2739  42.3648  17.3961   Oco2      1 RES1   0.0000
  5225 O38     30.1479  37.8918  17.3961   Oco2      1 RES1   0.0000
  5226 O39     30.1479  42.3648   9.3561   Oco2      1 RES1   0.0000
  5227 O40     32.2739  37.8918   9.3561   Oco2      1 RES1   0.0000
  5228 O41     35.2309  50.1087   6.6952   Oco2      1 RES1   0.0000
  5229 O42     35.2309  47.9827   2.2222   Oco2      1 RES1   0.0000
  5230 O43     27.1909  47.9827   6.6952   Oco2      1 RES1   0.0000
  5231 O44     27.1909  50.1087   2.2222   Oco2      1 RES1   0.0000
  5232 O45     24.5300  53.0657  14.4391   Oco2      1 RES1   0.0000
  5233 O46     20.0570  53.0657  12.3131   Oco2      1 RES1   0.0000
  5234 O47     24.5300  45.0257  12.3131   Oco2      1 RES1   0.0000
  5235 O48     20.0570  45.0257  14.4391   Oco2      1 RES1   0.0000
  5236 O49     21.2163  44.7172   2.2525   Oco2      1 RES1   0.0000
  5237 O51     23.3707  44.7172   6.6649   Oco2      1 RES1   0.0000
  5238 O53     20.0873  39.0511   9.0476   Oco2      1 RES1   0.0000
  5239 O54     20.0873  41.2055  -0.1302   Oco2      1 RES1   0.0000
  5240 O55     24.4997  41.2055   9.0476   Oco2      1 RES1   0.0000
  5241 O56     24.4997  39.0511  -0.1302   Oco2      1 RES1   0.0000
  5242 O57     26.8824  37.9221   3.3815   Oco2      1 RES1   0.0000
  5243 O59     26.8824  42.3345   5.5359   Oco2      1 RES1   0.0000
  5244 O61     32.2881  44.4568  15.5823   Oco2      1 RES1   0.0000
  5245 O62     30.1337  53.6346  15.5823   Oco2      1 RES1   0.0000
  5246 O63     30.1337  44.4568  11.1699   Oco2      1 RES1   0.0000
  5247 O64     32.2881  53.6346  11.1699   Oco2      1 RES1   0.0000
  5248 O65     33.4171  50.1229   8.7872   Oco2      1 RES1   0.0000
  5249 O66     33.4171  47.9685  17.9650   Oco2      1 RES1   0.0000
  5250 O67     29.0047  47.9685   8.7872   Oco2      1 RES1   0.0000
  5251 O68     29.0047  50.1229  17.9650   Oco2      1 RES1   0.0000
  5252 O69     26.6220  51.2519  14.4533   Oco2      1 RES1   0.0000
  5253 O70     35.7998  51.2519  12.2989   Oco2      1 RES1   0.0000
  5254 O71     26.6220  46.8395  12.2989   Oco2      1 RES1   0.0000
  5255 O72     35.7998  46.8395  14.4533   Oco2      1 RES1   0.0000
  5256 O73     21.5587  45.0133  16.2190   Oco2      1 RES1   0.0000
  5257 O74     23.0283  53.0781  16.2190   Oco2      1 RES1   0.0000
  5258 O75     23.0283  45.0133  10.5332   Oco2      1 RES1   0.0000
  5259 O76     21.5587  53.0781  10.5332   Oco2      1 RES1   0.0000
  5260 O77     34.0538  39.3935   9.3437   Oco2      1 RES1   0.0000
  5261 O78     34.0538  40.8631  17.4085   Oco2      1 RES1   0.0000
  5262 O79     28.3680  40.8631   9.3437   Oco2      1 RES1   0.0000
  5263 O80     28.3680  39.3935  17.4085   Oco2      1 RES1   0.0000
  5264 O81     27.1785  51.8886   3.7239   Oco2      1 RES1   0.0000
  5265 O82     35.2433  51.8886   5.1935   Oco2      1 RES1   0.0000
  5266 O83     27.1785  46.2028   5.1935   Oco2      1 RES1   0.0000
  5267 O84     35.2433  46.2028   3.7239   Oco2      1 RES1   0.0000
  5268 O85     31.9457  44.1607   1.6158   Oco2      1 RES1   0.0000
  5269 O86     30.4761  36.0959   1.6158   Oco2      1 RES1   0.0000
  5270 O87     30.4761  44.1607   7.3016   Oco2      1 RES1   0.0000
  5271 O88     31.9457  36.0959   7.3016   Oco2      1 RES1   0.0000
  5272 O91     25.1364  48.3109   8.4911   Oco2      1 RES1   0.0000
  5273 O92     25.1364  49.7805   0.4263   Oco2      1 RES1   0.0000
  5274 O95     26.3259  42.9712  12.6413   Oco2      1 RES1   0.0000
  5275 O96     18.2611  42.9712  14.1109   Oco2      1 RES1   0.0000
  5276 C1      20.6955  47.9596   0.4280   C.2       1 RES1   0.0000
  5277 C2      23.8915  50.1318   0.4280   C.2       1 RES1   0.0000
  5278 C3      23.8915  47.9596   8.4894   C.2       1 RES1   0.0000
  5279 C4      20.6955  50.1318   8.4894   C.2       1 RES1   0.0000
  5280 C5      18.2628  38.5303  12.2900   C.2       1 RES1   0.0000
  5281 C6      18.2628  41.7263  14.4622   C.2       1 RES1   0.0000
  5282 C7      26.3242  41.7263  12.2900   C.2       1 RES1   0.0000
  5283 C8      26.3242  38.5303  14.4622   C.2       1 RES1   0.0000
  5284 C9      30.1248  36.0976   2.8607   C.2       1 RES1   0.0000
  5285 C10     32.2970  36.0976   6.0567   C.2       1 RES1   0.0000
  5286 C11     30.1248  44.1590   6.0567   C.2       1 RES1   0.0000
  5287 C12     32.2970  44.1590   2.8607   C.2       1 RES1   0.0000
  5288 C13     32.8089  41.2144  17.4068   C.2       1 RES1   0.0000
  5289 C14     29.6129  39.0422  17.4068   C.2       1 RES1   0.0000
  5290 C15     29.6129  41.2144   9.3454   C.2       1 RES1   0.0000
  5291 C16     32.8089  39.0422   9.3454   C.2       1 RES1   0.0000
  5292 C17     35.2416  50.6437   5.5448   C.2       1 RES1   0.0000
  5293 C18     35.2416  47.4477   3.3726   C.2       1 RES1   0.0000
  5294 C19     27.1802  47.4477   5.5448   C.2       1 RES1   0.0000
  5295 C20     27.1802  50.6437   3.3726   C.2       1 RES1   0.0000
  5296 C21     23.3796  53.0764  14.9741   C.2       1 RES1   0.0000
  5297 C22     21.2074  53.0764  11.7781   C.2       1 RES1   0.0000
  5298 C23     23.3796  45.0150  11.7781   C.2       1 RES1   0.0000
  5299 C24     21.2074  45.0150  14.9741   C.2       1 RES1   0.0000
  5300 C25     21.6550  49.1438   0.4334   C.2       1 RES1   0.0000
  5301 C26     22.9320  48.9476   0.4334   C.2       1 RES1   0.0000
  5302 C27     22.9320  49.1438   8.4840   C.2       1 RES1   0.0000
  5303 C28     21.6550  48.9476   8.4840   C.2       1 RES1   0.0000
  5304 C29     18.2682  39.4898  13.4742   C.2       1 RES1   0.0000
  5305 C30     18.2682  40.7668  13.2780   C.2       1 RES1   0.0000
  5306 C31     26.3188  40.7668  13.4742   C.2       1 RES1   0.0000
  5307 C32     26.3188  39.4898  13.2780   C.2       1 RES1   0.0000
  5308 C33     31.3090  36.1030   3.8202   C.2       1 RES1   0.0000
  5309 C34     31.1128  36.1030   5.0972   C.2       1 RES1   0.0000
  5310 C35     31.3090  44.1536   5.0972   C.2       1 RES1   0.0000
  5311 C36     31.1128  44.1536   3.8202   C.2       1 RES1   0.0000
  5312 C37     31.8494  40.0302  17.4014   C.2       1 RES1   0.0000
  5313 C38     30.5724  40.2264  17.4014   C.2       1 RES1   0.0000
  5314 C39     30.5724  40.0302   9.3508   C.2       1 RES1   0.0000
  5315 C40     31.8494  40.2264   9.3508   C.2       1 RES1   0.0000
  5316 C41     35.2362  49.6842   4.3606   C.2       1 RES1   0.0000
  5317 C42     35.2362  48.4072   4.5568   C.2       1 RES1   0.0000
  5318 C43     27.1856  48.4072   4.3606   C.2       1 RES1   0.0000
  5319 C44     27.1856  49.6842   4.5568   C.2       1 RES1   0.0000
  5320 C45     22.1954  53.0710  14.0146   C.2       1 RES1   0.0000
  5321 C46     22.3916  53.0710  12.7376   C.2       1 RES1   0.0000
  5322 C47     22.1954  45.0204  12.7376   C.2       1 RES1   0.0000
  5323 C48     22.3916  45.0204  14.0146   C.2       1 RES1   0.0000
  5324 H1      21.3215  50.0123   0.4352   H         1 RES1   0.0000
  5325 H2      23.2655  48.0791   0.4352   H         1 RES1   0.0000
  5326 H3      23.2655  50.0123   8.4822   H         1 RES1   0.0000
  5327 H4      21.3215  48.0791   8.4822   H         1 RES1   0.0000
  5328 H5      18.2700  39.1563  14.3427   H         1 RES1   0.0000
  5329 H6      18.2700  41.1003  12.4095   H         1 RES1   0.0000
  5330 H7      26.3170  41.1003  14.3427   H         1 RES1   0.0000
  5331 H8      26.3170  39.1563  12.4095   H         1 RES1   0.0000
  5332 H9      32.1775  36.1048   3.4867   H         1 RES1   0.0000
  5333 H10     30.2443  36.1048   5.4307   H         1 RES1   0.0000
  5334 H11     32.1775  44.1518   5.4307   H         1 RES1   0.0000
  5335 H12     30.2443  44.1518   3.4867   H         1 RES1   0.0000
  5336 H13     32.1829  39.1617  17.3996   H         1 RES1   0.0000
  5337 H14     30.2389  41.0949  17.3996   H         1 RES1   0.0000
  5338 H15     30.2389  39.1617   9.3526   H         1 RES1   0.0000
  5339 H16     32.1829  41.0949   9.3526   H         1 RES1   0.0000
  5340 H17     35.2344  50.0177   3.4921   H         1 RES1   0.0000
  5341 H18     35.2344  48.0737   5.4253   H         1 RES1   0.0000
  5342 H19     27.1874  48.0737   3.4921   H         1 RES1   0.0000
  5343 H20     27.1874  50.0177   5.4253   H         1 RES1   0.0000
  5344 H21     21.3269  53.0692  14.3481   H         1 RES1   0.0000
  5345 H22     23.2601  53.0692  12.4041   H         1 RES1   0.0000
  5346 H23     21.3269  45.0222  12.4041   H         1 RES1   0.0000
  5347 H24     23.2601  45.0222  14.3481   H         1 RES1   0.0000
  5348 C49     21.2341  41.7299   0.0000   C.2       1 RES1   0.0000
  5349 C50     23.3529  38.5267   0.0000   C.2       1 RES1   0.0000
  5350 C51     23.3529  41.7299   8.9174   C.2       1 RES1   0.0000
  5351 C52     21.2341  38.5267   8.9174   C.2       1 RES1   0.0000
  5352 C53     17.8348  39.0689   6.0603   C.2       1 RES1   0.0000
  5353 C54     17.8348  41.1877   2.8571   C.2       1 RES1   0.0000
  5354 C55     26.7522  41.1877   6.0603   C.2       1 RES1   0.0000
  5355 C56     26.7522  39.0689   2.8571   C.2       1 RES1   0.0000
  5356 C57     23.8951  35.6696   3.3993   C.2       1 RES1   0.0000
  5357 C58     20.6919  35.6696   5.5181   C.2       1 RES1   0.0000
  5358 C59     23.8951  44.5870   5.5181   C.2       1 RES1   0.0000
  5359 C60     20.6919  44.5870   3.3993   C.2       1 RES1   0.0000
  5360 C61     32.2703  47.4441  17.8348   C.2       1 RES1   0.0000
  5361 C62     30.1515  50.6473  17.8348   C.2       1 RES1   0.0000
  5362 C63     30.1515  47.4441   8.9174   C.2       1 RES1   0.0000
  5363 C64     32.2703  50.6473   8.9174   C.2       1 RES1   0.0000
  5364 C65     35.6696  50.1051  11.7745   C.2       1 RES1   0.0000
  5365 C66     35.6696  47.9863  14.9777   C.2       1 RES1   0.0000
  5366 C67     26.7522  47.9863  11.7745   C.2       1 RES1   0.0000
  5367 C68     26.7522  50.1051  14.9777   C.2       1 RES1   0.0000
  5368 C69     29.6093  53.5044  14.4355   C.2       1 RES1   0.0000
  5369 C70     32.8125  53.5044  12.3167   C.2       1 RES1   0.0000
  5370 C71     29.6093  44.5870  12.3167   C.2       1 RES1   0.0000
  5371 C72     32.8125  44.5870  14.4355   C.2       1 RES1   0.0000
  5372 C73     22.4130  40.7793   0.0018   C.2       1 RES1   0.0000
  5373 C74     22.1740  39.4773   0.0018   C.2       1 RES1   0.0000
  5374 C75     22.1740  40.7793   8.9156   C.2       1 RES1   0.0000
  5375 C76     22.4130  39.4773   8.9156   C.2       1 RES1   0.0000
  5376 C77     17.8366  40.2478   5.1097   C.2       1 RES1   0.0000
  5377 C78     17.8366  40.0088   3.8077   C.2       1 RES1   0.0000
  5378 C79     26.7504  40.0088   5.1097   C.2       1 RES1   0.0000
  5379 C80     26.7504  40.2478   3.8077   C.2       1 RES1   0.0000
  5380 C81     22.9445  35.6714   4.5782   C.2       1 RES1   0.0000
  5381 C82     21.6425  35.6714   4.3392   C.2       1 RES1   0.0000
  5382 C83     22.9445  44.5852   4.3392   C.2       1 RES1   0.0000
  5383 C84     21.6425  44.5852   4.5782   C.2       1 RES1   0.0000
  5384 C85     31.0914  48.3947  17.8330   C.2       1 RES1   0.0000
  5385 C86     31.3304  49.6967  17.8330   C.2       1 RES1   0.0000
  5386 C87     31.3304  48.3947   8.9192   C.2       1 RES1   0.0000
  5387 C88     31.0914  49.6967   8.9192   C.2       1 RES1   0.0000
  5388 C89     35.6678  48.9262  12.7251   C.2       1 RES1   0.0000
  5389 C90     35.6678  49.1652  14.0271   C.2       1 RES1   0.0000
  5390 C91     26.7540  49.1652  12.7251   C.2       1 RES1   0.0000
  5391 C92     26.7540  48.9262  14.0271   C.2       1 RES1   0.0000
  5392 C93     30.5599  53.5026  13.2566   C.2       1 RES1   0.0000
  5393 C94     31.8619  53.5026  13.4956   C.2       1 RES1   0.0000
  5394 C95     30.5599  44.5888  13.4956   C.2       1 RES1   0.0000
  5395 C96     31.8619  44.5888  13.2566   C.2       1 RES1   0.0000
  5396 H25     23.2851  41.1021   0.0018   H         1 RES1   0.0000
  5397 H26     21.3019  39.1545   0.0018   H         1 RES1   0.0000
  5398 H27     21.3019  41.1021   8.9156   H         1 RES1   0.0000
  5399 H28     23.2851  39.1545   8.9156   H         1 RES1   0.0000
  5400 H29     17.8366  41.1199   5.4325   H         1 RES1   0.0000
  5401 H30     17.8366  39.1367   3.4849   H         1 RES1   0.0000
  5402 H31     26.7504  39.1367   5.4325   H         1 RES1   0.0000
  5403 H32     26.7504  41.1199   3.4849   H         1 RES1   0.0000
  5404 H33     23.2673  35.6714   5.4503   H         1 RES1   0.0000
  5405 H34     21.3197  35.6714   3.4671   H         1 RES1   0.0000
  5406 H35     23.2673  44.5852   3.4671   H         1 RES1   0.0000
  5407 H36     21.3197  44.5852   5.4503   H         1 RES1   0.0000
  5408 H37     30.2193  48.0719  17.8330   H         1 RES1   0.0000
  5409 H38     32.2025  50.0195  17.8330   H         1 RES1   0.0000
  5410 H39     32.2025  48.0719   8.9192   H         1 RES1   0.0000
  5411 H40     30.2193  50.0195   8.9192   H         1 RES1   0.0000
  5412 H41     35.6678  48.0541  12.4023   H         1 RES1   0.0000
  5413 H42     35.6678  50.0373  14.3499   H         1 RES1   0.0000
  5414 H43     26.7540  50.0373  12.4023   H         1 RES1   0.0000
  5415 H44     26.7540  48.0541  14.3499   H         1 RES1   0.0000
  5416 H45     30.2371  53.5026  12.3845   H         1 RES1   0.0000
  5417 H46     32.1847  53.5026  14.3677   H         1 RES1   0.0000
  5418 H47     30.2371  44.5888  14.3677   H         1 RES1   0.0000
  5419 H48     32.1847  44.5888  12.3845   H         1 RES1   0.0000
  5420 O98     25.3878  51.8689  16.6809   O3        1 RES1   0.0000
  5421 O99     25.3878  46.2225  10.0713   O3        1 RES1   0.0000
  5422 O101    34.5157  37.0340  10.5529   O3        1 RES1   0.0000
  5423 O102    34.5157  43.2226  16.1993   O3        1 RES1   0.0000
  5424 O103    27.9061  43.2226  10.5529   O3        1 RES1   0.0000
  5425 O105    28.3877  52.3505   1.3644   O3        1 RES1   0.0000
  5426 O106    34.0341  52.3505   7.5530   O3        1 RES1   0.0000
  5427 O107    28.3877  45.7409   7.5530   O3        1 RES1   0.0000
  5428 O108    34.0341  45.7409   1.3644   O3        1 RES1   0.0000
  5429 O109    34.3052  42.9515   1.1539   O3        1 RES1   0.0000
  5430 O110    28.1166  37.3051   1.1539   O3        1 RES1   0.0000
  5431 O111    28.1166  42.9515   7.7635   O3        1 RES1   0.0000
  5432 O112    34.3052  37.3051   7.7635   O3        1 RES1   0.0000
  5433 O115    25.5983  45.9514   7.2819   O3        1 RES1   0.0000
  5434 O116    25.5983  52.1400   1.6355   O3        1 RES1   0.0000
  5435 O119    25.1167  43.4331  10.2818   O3        1 RES1   0.0000
  5436 O155    25.3522  43.1870   7.5174   O3        1 RES1   0.0000
  5437 O157    34.2696  45.9870  16.4348   O3        1 RES1   0.0000
  5438 O158    28.1522  52.1044  16.4348   O3        1 RES1   0.0000
  5439 O159    28.1522  45.9870  10.3174   O3        1 RES1   0.0000
  5440 O160    34.2696  52.1044  10.3174   O3        1 RES1   0.0000
  5441 Zr1     38.1281  44.7855   0.2119   Zr        1 RES1   0.0000
  5442 Zr2     24.2937  53.3059  18.0467   Zr        1 RES1   0.0000
  5443 Zr4     38.1281  53.3059   8.7055   Zr        1 RES1   0.0000
  5444 Zr5     18.0467  55.9629   9.1159   Zr        1 RES1   0.0000
  5445 Zr5     35.8815  38.1281   9.1159   Zr        1 RES1   0.0000
  5446 Zr6     35.8815  42.1285  -0.1985   Zr        1 RES1   0.0000
  5447 Zr6     35.8815  42.1285  17.6363   Zr        1 RES1   0.0000
  5448 Zr8     26.5403  55.9629  -0.1985   Zr        1 RES1   0.0000
  5449 Zr8     26.5403  55.9629  17.6363   Zr        1 RES1   0.0000
  5450 Zr9     26.9507  53.7163   2.4585   Zr        1 RES1   0.0000
  5451 Zr10    35.4711  53.7163   6.4589   Zr        1 RES1   0.0000
  5452 Zr12    35.4711  44.3751  20.2933   Zr        1 RES1   0.0000
  5453 Zr13    33.2111  44.3885  -0.2119   Zr        1 RES1   0.0000
  5454 Zr14    29.2107  53.7029  -0.2119   Zr        1 RES1   0.0000
  5455 Zr14    29.2107  53.7029  17.6229   Zr        1 RES1   0.0000
  5456 Zr16    33.2111  53.7029   9.1293   Zr        1 RES1   0.0000
  5457 Zr18    35.4577  47.0455  18.0333   Zr        1 RES1   0.0000
  5458 Zr20    26.9641  51.0459  18.0333   Zr        1 RES1   0.0000
  5459 Zr21    26.5537  53.2925  -2.4585   Zr        1 RES1   0.0000
  5460 Zr22    35.8681  53.2925  11.3759   Zr        1 RES1   0.0000
  5461 Zr24    35.8681  44.7989  -2.4585   Zr        1 RES1   0.0000
  5462 Zr24    35.8681  44.7989  15.3763   Zr        1 RES1   0.0000
  5463 O2      23.0247  55.1363   0.1427   O.2       1 RES1   0.0000
  5464 O4      21.5623  55.1363   8.7747   O.2       1 RES1   0.0000
  5465 O6      17.9775  40.8595  19.4667   Oco2      1 RES1   0.0000
  5466 O8      26.6095  39.3971  19.4667   Oco2      1 RES1   0.0000
  5467 O10     37.3015  35.8123   5.1899   Oco2      1 RES1   0.0000
  5468 O12     37.3015  44.4443   3.7275   Oco2      1 RES1   0.0000
  5469 O18     35.5269  48.3145  -1.6319   O.2       1 RES1   0.0000
  5470 O20     26.8949  49.7769  -1.6319   O.2       1 RES1   0.0000
  5471 O50     23.3707  53.3742   2.2525   O.2       1 RES1   0.0000
  5472 O52     21.2163  53.3742   6.6649   O.2       1 RES1   0.0000
  5473 O54     20.0873  41.2055  17.7046   Oco2      1 RES1   0.0000
  5474 O56     24.4997  39.0511  17.7046   Oco2      1 RES1   0.0000
  5475 O58     35.5394  37.9221   5.5359   Oco2      1 RES1   0.0000
  5476 O60     35.5394  42.3345   3.3815   Oco2      1 RES1   0.0000
  5477 O66     33.4171  47.9685   0.1302   O.2       1 RES1   0.0000
  5478 O68     29.0047  50.1229   0.1302   O.2       1 RES1   0.0000
  5479 O73     21.5587  45.0133  -1.6158   O.2       1 RES1   0.0000
  5480 O74     23.0283  53.0781  -1.6158   O.2       1 RES1   0.0000
  5481 O85     31.9457  44.1607  19.4506   Oco2      1 RES1   0.0000
  5482 O86     30.4761  36.0959  19.4506   Oco2      1 RES1   0.0000
  5483 O89     37.2854  49.7805   8.4911   Oco2      1 RES1   0.0000
  5484 O90     37.2854  48.3109   0.4263   Oco2      1 RES1   0.0000
  5485 O93     26.3259  55.1202  14.1109   O.2       1 RES1   0.0000
  5486 O94     18.2611  55.1202  12.6413   O.2       1 RES1   0.0000
  5487 O97     37.0340  46.2225  -1.1539   O3        1 RES1   0.0000
  5488 O98     25.3878  51.8689  -1.1539   O3        1 RES1   0.0000
  5489 O100    37.0340  51.8689  10.0713   O3        1 RES1   0.0000
  5490 O101    16.6809  54.8688  10.5529   O3        1 RES1   0.0000
  5491 O104    27.9061  54.8688  16.1993   O3        1 RES1   0.0000
  5492 O108    34.0341  45.7409  19.1992   O3        1 RES1   0.0000
  5493 O109    34.3052  42.9515  18.9887   O3        1 RES1   0.0000
  5494 O110    28.1166  37.3051  18.9887   O3        1 RES1   0.0000
  5495 O113    36.8235  52.1400   7.2819   O3        1 RES1   0.0000
  5496 O114    36.8235  45.9514   1.6355   O3        1 RES1   0.0000
  5497 O117    25.1167  54.6583  -1.3644   O3        1 RES1   0.0000
  5498 O117    25.1167  54.6583  16.4704   O3        1 RES1   0.0000
  5499 O118    19.4703  54.6583  10.2818   O3        1 RES1   0.0000
  5500 O120    19.4703  43.4331  -1.3644   O3        1 RES1   0.0000
  5501 O153    37.0696  43.1870   1.4000   O3        1 RES1   0.0000
  5502 O154    25.3522  54.9044   1.4000   O3        1 RES1   0.0000
  5503 O156    19.2348  54.9044   7.5174   O3        1 RES1   0.0000
  5504 O156    37.0696  37.0696   7.5174   O3        1 RES1   0.0000
  5505 O157    34.2696  45.9870  -1.4000   O3        1 RES1   0.0000
  5506 O158    28.1522  52.1044  -1.4000   O3        1 RES1   0.0000
  5507 Zr3     24.2937  44.7855  26.5403   Zr        1 RES1   0.0000
  5508 Zr7     26.5403  42.1285  26.9507   Zr        1 RES1   0.0000
  5509 Zr11    26.9507  44.3751  24.2937   Zr        1 RES1   0.0000
  5510 Zr13    33.2111  44.3885  35.4577   Zr        1 RES1   0.0000
  5511 Zr15    29.2107  44.3885  26.9641   Zr        1 RES1   0.0000
  5512 Zr17    35.4577  51.0459  26.5537   Zr        1 RES1   0.0000
  5513 Zr19    26.9641  47.0455  26.5537   Zr        1 RES1   0.0000
  5514 Zr21    26.5537  53.2925  33.2111   Zr        1 RES1   0.0000
  5515 Zr23    26.5537  44.7989  29.2107   Zr        1 RES1   0.0000
  5516 O1      21.5623  42.9551  17.9775   Oco2      1 RES1   0.0000
  5517 O3      23.0247  42.9551  26.6095   Oco2      1 RES1   0.0000
  5518 O5      17.9775  39.3971  25.1203   Oco2      1 RES1   0.0000
  5519 O7      26.6095  40.8595  25.1203   Oco2      1 RES1   0.0000
  5520 O9      25.1203  35.8123  21.5623   Oco2      1 RES1   0.0000
  5521 O11     25.1203  44.4443  23.0247   Oco2      1 RES1   0.0000
  5522 O13     31.9421  46.2189  35.5269   Oco2      1 RES1   0.0000
  5523 O14     30.4797  51.8725  35.5269   Oco2      1 RES1   0.0000
  5524 O15     30.4797  46.2189  26.8949   Oco2      1 RES1   0.0000
  5525 O16     31.9421  51.8725  26.8949   Oco2      1 RES1   0.0000
  5526 O17     35.5269  49.7769  28.3841   Oco2      1 RES1   0.0000
  5527 O18     35.5269  48.3145  34.0377   Oco2      1 RES1   0.0000
  5528 O19     26.8949  48.3145  28.3841   Oco2      1 RES1   0.0000
  5529 O20     26.8949  49.7769  34.0377   Oco2      1 RES1   0.0000
  5530 O21     28.3841  53.3617  31.9421   Oco2      1 RES1   0.0000
  5531 O22     34.0377  53.3617  30.4797   Oco2      1 RES1   0.0000
  5532 O23     28.3841  44.7297  30.4797   Oco2      1 RES1   0.0000
  5533 O24     34.0377  44.7297  31.9421   Oco2      1 RES1   0.0000
  5534 O25     21.2305  46.8092  18.2735   Oco2      1 RES1   0.0000
  5535 O26     23.3565  51.2822  18.2735   Oco2      1 RES1   0.0000
  5536 O27     23.3565  46.8092  26.3135   Oco2      1 RES1   0.0000
  5537 O28     21.2305  51.2822  26.3135   Oco2      1 RES1   0.0000
  5538 O29     18.2735  39.0653  28.9744   Oco2      1 RES1   0.0000
  5539 O30     18.2735  41.1913  33.4474   Oco2      1 RES1   0.0000
  5540 O31     26.3135  41.1913  28.9744   Oco2      1 RES1   0.0000
  5541 O32     26.3135  39.0653  33.4474   Oco2      1 RES1   0.0000
  5542 O33     28.9744  36.1083  21.2305   Oco2      1 RES1   0.0000
  5543 O34     33.4474  36.1083  23.3565   Oco2      1 RES1   0.0000
  5544 O35     28.9744  44.1483  23.3565   Oco2      1 RES1   0.0000
  5545 O36     33.4474  44.1483  21.2305   Oco2      1 RES1   0.0000
  5546 O37     32.2739  42.3648  35.2309   Oco2      1 RES1   0.0000
  5547 O38     30.1479  37.8918  35.2309   Oco2      1 RES1   0.0000
  5548 O39     30.1479  42.3648  27.1909   Oco2      1 RES1   0.0000
  5549 O40     32.2739  37.8918  27.1909   Oco2      1 RES1   0.0000
  5550 O41     35.2309  50.1087  24.5300   Oco2      1 RES1   0.0000
  5551 O42     35.2309  47.9827  20.0570   Oco2      1 RES1   0.0000
  5552 O43     27.1909  47.9827  24.5300   Oco2      1 RES1   0.0000
  5553 O44     27.1909  50.1087  20.0570   Oco2      1 RES1   0.0000
  5554 O45     24.5300  53.0657  32.2739   Oco2      1 RES1   0.0000
  5555 O46     20.0570  53.0657  30.1479   Oco2      1 RES1   0.0000
  5556 O47     24.5300  45.0257  30.1479   Oco2      1 RES1   0.0000
  5557 O48     20.0570  45.0257  32.2739   Oco2      1 RES1   0.0000
  5558 O49     21.2163  44.7172  20.0873   Oco2      1 RES1   0.0000
  5559 O51     23.3707  44.7172  24.4997   Oco2      1 RES1   0.0000
  5560 O53     20.0873  39.0511  26.8824   Oco2      1 RES1   0.0000
  5561 O55     24.4997  41.2055  26.8824   Oco2      1 RES1   0.0000
  5562 O57     26.8824  37.9221  21.2163   Oco2      1 RES1   0.0000
  5563 O59     26.8824  42.3345  23.3707   Oco2      1 RES1   0.0000
  5564 O61     32.2881  44.4568  33.4171   Oco2      1 RES1   0.0000
  5565 O62     30.1337  53.6346  33.4171   Oco2      1 RES1   0.0000
  5566 O63     30.1337  44.4568  29.0047   Oco2      1 RES1   0.0000
  5567 O64     32.2881  53.6346  29.0047   Oco2      1 RES1   0.0000
  5568 O65     33.4171  50.1229  26.6220   Oco2      1 RES1   0.0000
  5569 O66     33.4171  47.9685  35.7998   Oco2      1 RES1   0.0000
  5570 O67     29.0047  47.9685  26.6220   Oco2      1 RES1   0.0000
  5571 O68     29.0047  50.1229  35.7998   Oco2      1 RES1   0.0000
  5572 O69     26.6220  51.2519  32.2881   Oco2      1 RES1   0.0000
  5573 O70     35.7998  51.2519  30.1337   Oco2      1 RES1   0.0000
  5574 O71     26.6220  46.8395  30.1337   Oco2      1 RES1   0.0000
  5575 O72     35.7998  46.8395  32.2881   Oco2      1 RES1   0.0000
  5576 O73     21.5587  45.0133  34.0538   Oco2      1 RES1   0.0000
  5577 O74     23.0283  53.0781  34.0538   Oco2      1 RES1   0.0000
  5578 O75     23.0283  45.0133  28.3680   Oco2      1 RES1   0.0000
  5579 O76     21.5587  53.0781  28.3680   Oco2      1 RES1   0.0000
  5580 O77     34.0538  39.3935  27.1785   Oco2      1 RES1   0.0000
  5581 O78     34.0538  40.8631  35.2433   Oco2      1 RES1   0.0000
  5582 O79     28.3680  40.8631  27.1785   Oco2      1 RES1   0.0000
  5583 O80     28.3680  39.3935  35.2433   Oco2      1 RES1   0.0000
  5584 O81     27.1785  51.8886  21.5587   Oco2      1 RES1   0.0000
  5585 O82     35.2433  51.8886  23.0283   Oco2      1 RES1   0.0000
  5586 O83     27.1785  46.2028  23.0283   Oco2      1 RES1   0.0000
  5587 O84     35.2433  46.2028  21.5587   Oco2      1 RES1   0.0000
  5588 O87     30.4761  44.1607  25.1364   Oco2      1 RES1   0.0000
  5589 O88     31.9457  36.0959  25.1364   Oco2      1 RES1   0.0000
  5590 O91     25.1364  48.3109  26.3259   Oco2      1 RES1   0.0000
  5591 O92     25.1364  49.7805  18.2611   Oco2      1 RES1   0.0000
  5592 O95     26.3259  42.9712  30.4761   Oco2      1 RES1   0.0000
  5593 O96     18.2611  42.9712  31.9457   Oco2      1 RES1   0.0000
  5594 C1      20.6955  47.9596  18.2628   C.2       1 RES1   0.0000
  5595 C2      23.8915  50.1318  18.2628   C.2       1 RES1   0.0000
  5596 C3      23.8915  47.9596  26.3242   C.2       1 RES1   0.0000
  5597 C4      20.6955  50.1318  26.3242   C.2       1 RES1   0.0000
  5598 C5      18.2628  38.5303  30.1248   C.2       1 RES1   0.0000
  5599 C6      18.2628  41.7263  32.2970   C.2       1 RES1   0.0000
  5600 C7      26.3242  41.7263  30.1248   C.2       1 RES1   0.0000
  5601 C8      26.3242  38.5303  32.2970   C.2       1 RES1   0.0000
  5602 C9      30.1248  36.0976  20.6955   C.2       1 RES1   0.0000
  5603 C10     32.2970  36.0976  23.8915   C.2       1 RES1   0.0000
  5604 C11     30.1248  44.1590  23.8915   C.2       1 RES1   0.0000
  5605 C12     32.2970  44.1590  20.6955   C.2       1 RES1   0.0000
  5606 C13     32.8089  41.2144  35.2416   C.2       1 RES1   0.0000
  5607 C14     29.6129  39.0422  35.2416   C.2       1 RES1   0.0000
  5608 C15     29.6129  41.2144  27.1802   C.2       1 RES1   0.0000
  5609 C16     32.8089  39.0422  27.1802   C.2       1 RES1   0.0000
  5610 C17     35.2416  50.6437  23.3796   C.2       1 RES1   0.0000
  5611 C18     35.2416  47.4477  21.2074   C.2       1 RES1   0.0000
  5612 C19     27.1802  47.4477  23.3796   C.2       1 RES1   0.0000
  5613 C20     27.1802  50.6437  21.2074   C.2       1 RES1   0.0000
  5614 C21     23.3796  53.0764  32.8089   C.2       1 RES1   0.0000
  5615 C22     21.2074  53.0764  29.6129   C.2       1 RES1   0.0000
  5616 C23     23.3796  45.0150  29.6129   C.2       1 RES1   0.0000
  5617 C24     21.2074  45.0150  32.8089   C.2       1 RES1   0.0000
  5618 C25     21.6550  49.1438  18.2682   C.2       1 RES1   0.0000
  5619 C26     22.9320  48.9476  18.2682   C.2       1 RES1   0.0000
  5620 C27     22.9320  49.1438  26.3188   C.2       1 RES1   0.0000
  5621 C28     21.6550  48.9476  26.3188   C.2       1 RES1   0.0000
  5622 C29     18.2682  39.4898  31.3090   C.2       1 RES1   0.0000
  5623 C30     18.2682  40.7668  31.1128   C.2       1 RES1   0.0000
  5624 C31     26.3188  40.7668  31.3090   C.2       1 RES1   0.0000
  5625 C32     26.3188  39.4898  31.1128   C.2       1 RES1   0.0000
  5626 C33     31.3090  36.1030  21.6550   C.2       1 RES1   0.0000
  5627 C34     31.1128  36.1030  22.9320   C.2       1 RES1   0.0000
  5628 C35     31.3090  44.1536  22.9320   C.2       1 RES1   0.0000
  5629 C36     31.1128  44.1536  21.6550   C.2       1 RES1   0.0000
  5630 C37     31.8494  40.0302  35.2362   C.2       1 RES1   0.0000
  5631 C38     30.5724  40.2264  35.2362   C.2       1 RES1   0.0000
  5632 C39     30.5724  40.0302  27.1856   C.2       1 RES1   0.0000
  5633 C40     31.8494  40.2264  27.1856   C.2       1 RES1   0.0000
  5634 C41     35.2362  49.6842  22.1954   C.2       1 RES1   0.0000
  5635 C42     35.2362  48.4072  22.3916   C.2       1 RES1   0.0000
  5636 C43     27.1856  48.4072  22.1954   C.2       1 RES1   0.0000
  5637 C44     27.1856  49.6842  22.3916   C.2       1 RES1   0.0000
  5638 C45     22.1954  53.0710  31.8494   C.2       1 RES1   0.0000
  5639 C46     22.3916  53.0710  30.5724   C.2       1 RES1   0.0000
  5640 C47     22.1954  45.0204  30.5724   C.2       1 RES1   0.0000
  5641 C48     22.3916  45.0204  31.8494   C.2       1 RES1   0.0000
  5642 H1      21.3215  50.0123  18.2700   H         1 RES1   0.0000
  5643 H2      23.2655  48.0791  18.2700   H         1 RES1   0.0000
  5644 H3      23.2655  50.0123  26.3170   H         1 RES1   0.0000
  5645 H4      21.3215  48.0791  26.3170   H         1 RES1   0.0000
  5646 H5      18.2700  39.1563  32.1775   H         1 RES1   0.0000
  5647 H6      18.2700  41.1003  30.2443   H         1 RES1   0.0000
  5648 H7      26.3170  41.1003  32.1775   H         1 RES1   0.0000
  5649 H8      26.3170  39.1563  30.2443   H         1 RES1   0.0000
  5650 H9      32.1775  36.1048  21.3215   H         1 RES1   0.0000
  5651 H10     30.2443  36.1048  23.2655   H         1 RES1   0.0000
  5652 H11     32.1775  44.1518  23.2655   H         1 RES1   0.0000
  5653 H12     30.2443  44.1518  21.3215   H         1 RES1   0.0000
  5654 H13     32.1829  39.1617  35.2344   H         1 RES1   0.0000
  5655 H14     30.2389  41.0949  35.2344   H         1 RES1   0.0000
  5656 H15     30.2389  39.1617  27.1874   H         1 RES1   0.0000
  5657 H16     32.1829  41.0949  27.1874   H         1 RES1   0.0000
  5658 H17     35.2344  50.0177  21.3269   H         1 RES1   0.0000
  5659 H18     35.2344  48.0737  23.2601   H         1 RES1   0.0000
  5660 H19     27.1874  48.0737  21.3269   H         1 RES1   0.0000
  5661 H20     27.1874  50.0177  23.2601   H         1 RES1   0.0000
  5662 H21     21.3269  53.0692  32.1829   H         1 RES1   0.0000
  5663 H22     23.2601  53.0692  30.2389   H         1 RES1   0.0000
  5664 H23     21.3269  45.0222  30.2389   H         1 RES1   0.0000
  5665 H24     23.2601  45.0222  32.1829   H         1 RES1   0.0000
  5666 C49     21.2341  41.7299  17.8348   C.2       1 RES1   0.0000
  5667 C50     23.3529  38.5267  17.8348   C.2       1 RES1   0.0000
  5668 C51     23.3529  41.7299  26.7522   C.2       1 RES1   0.0000
  5669 C52     21.2341  38.5267  26.7522   C.2       1 RES1   0.0000
  5670 C53     17.8348  39.0689  23.8951   C.2       1 RES1   0.0000
  5671 C54     17.8348  41.1877  20.6919   C.2       1 RES1   0.0000
  5672 C55     26.7522  41.1877  23.8951   C.2       1 RES1   0.0000
  5673 C56     26.7522  39.0689  20.6919   C.2       1 RES1   0.0000
  5674 C57     23.8951  35.6696  21.2341   C.2       1 RES1   0.0000
  5675 C58     20.6919  35.6696  23.3529   C.2       1 RES1   0.0000
  5676 C59     23.8951  44.5870  23.3529   C.2       1 RES1   0.0000
  5677 C60     20.6919  44.5870  21.2341   C.2       1 RES1   0.0000
  5678 C61     32.2703  47.4441  35.6696   C.2       1 RES1   0.0000
  5679 C62     30.1515  50.6473  35.6696   C.2       1 RES1   0.0000
  5680 C63     30.1515  47.4441  26.7522   C.2       1 RES1   0.0000
  5681 C64     32.2703  50.6473  26.7522   C.2       1 RES1   0.0000
  5682 C65     35.6696  50.1051  29.6093   C.2       1 RES1   0.0000
  5683 C66     35.6696  47.9863  32.8125   C.2       1 RES1   0.0000
  5684 C67     26.7522  47.9863  29.6093   C.2       1 RES1   0.0000
  5685 C68     26.7522  50.1051  32.8125   C.2       1 RES1   0.0000
  5686 C69     29.6093  53.5044  32.2703   C.2       1 RES1   0.0000
  5687 C70     32.8125  53.5044  30.1515   C.2       1 RES1   0.0000
  5688 C71     29.6093  44.5870  30.1515   C.2       1 RES1   0.0000
  5689 C72     32.8125  44.5870  32.2703   C.2       1 RES1   0.0000
  5690 C73     22.4130  40.7793  17.8366   C.2       1 RES1   0.0000
  5691 C74     22.1740  39.4773  17.8366   C.2       1 RES1   0.0000
  5692 C75     22.1740  40.7793  26.7504   C.2       1 RES1   0.0000
  5693 C76     22.4130  39.4773  26.7504   C.2       1 RES1   0.0000
  5694 C77     17.8366  40.2478  22.9445   C.2       1 RES1   0.0000
  5695 C78     17.8366  40.0088  21.6425   C.2       1 RES1   0.0000
  5696 C79     26.7504  40.0088  22.9445   C.2       1 RES1   0.0000
  5697 C80     26.7504  40.2478  21.6425   C.2       1 RES1   0.0000
  5698 C81     22.9445  35.6714  22.4130   C.2       1 RES1   0.0000
  5699 C82     21.6425  35.6714  22.1740   C.2       1 RES1   0.0000
  5700 C83     22.9445  44.5852  22.1740   C.2       1 RES1   0.0000
  5701 C84     21.6425  44.5852  22.4130   C.2       1 RES1   0.0000
  5702 C85     31.0914  48.3947  35.6678   C.2       1 RES1   0.0000
  5703 C86     31.3304  49.6967  35.6678   C.2       1 RES1   0.0000
  5704 C87     31.3304  48.3947  26.7540   C.2       1 RES1   0.0000
  5705 C88     31.0914  49.6967  26.7540   C.2       1 RES1   0.0000
  5706 C89     35.6678  48.9262  30.5599   C.2       1 RES1   0.0000
  5707 C90     35.6678  49.1652  31.8619   C.2       1 RES1   0.0000
  5708 C91     26.7540  49.1652  30.5599   C.2       1 RES1   0.0000
  5709 C92     26.7540  48.9262  31.8619   C.2       1 RES1   0.0000
  5710 C93     30.5599  53.5026  31.0914   C.2       1 RES1   0.0000
  5711 C94     31.8619  53.5026  31.3304   C.2       1 RES1   0.0000
  5712 C95     30.5599  44.5888  31.3304   C.2       1 RES1   0.0000
  5713 C96     31.8619  44.5888  31.0914   C.2       1 RES1   0.0000
  5714 H25     23.2851  41.1021  17.8366   H         1 RES1   0.0000
  5715 H26     21.3019  39.1545  17.8366   H         1 RES1   0.0000
  5716 H27     21.3019  41.1021  26.7504   H         1 RES1   0.0000
  5717 H28     23.2851  39.1545  26.7504   H         1 RES1   0.0000
  5718 H29     17.8366  41.1199  23.2673   H         1 RES1   0.0000
  5719 H30     17.8366  39.1367  21.3197   H         1 RES1   0.0000
  5720 H31     26.7504  39.1367  23.2673   H         1 RES1   0.0000
  5721 H32     26.7504  41.1199  21.3197   H         1 RES1   0.0000
  5722 H33     23.2673  35.6714  23.2851   H         1 RES1   0.0000
  5723 H34     21.3197  35.6714  21.3019   H         1 RES1   0.0000
  5724 H35     23.2673  44.5852  21.3019   H         1 RES1   0.0000
  5725 H36     21.3197  44.5852  23.2851   H         1 RES1   0.0000
  5726 H37     30.2193  48.0719  35.6678   H         1 RES1   0.0000
  5727 H38     32.2025  50.0195  35.6678   H         1 RES1   0.0000
  5728 H39     32.2025  48.0719  26.7540   H         1 RES1   0.0000
  5729 H40     30.2193  50.0195  26.7540   H         1 RES1   0.0000
  5730 H41     35.6678  48.0541  30.2371   H         1 RES1   0.0000
  5731 H42     35.6678  50.0373  32.1847   H         1 RES1   0.0000
  5732 H43     26.7540  50.0373  30.2371   H         1 RES1   0.0000
  5733 H44     26.7540  48.0541  32.1847   H         1 RES1   0.0000
  5734 H45     30.2371  53.5026  30.2193   H         1 RES1   0.0000
  5735 H46     32.1847  53.5026  32.2025   H         1 RES1   0.0000
  5736 H47     30.2371  44.5888  32.2025   H         1 RES1   0.0000
  5737 H48     32.1847  44.5888  30.2193   H         1 RES1   0.0000
  5738 O98     25.3878  51.8689  34.5157   O3        1 RES1   0.0000
  5739 O99     25.3878  46.2225  27.9061   O3        1 RES1   0.0000
  5740 O101    34.5157  37.0340  28.3877   O3        1 RES1   0.0000
  5741 O102    34.5157  43.2226  34.0341   O3        1 RES1   0.0000
  5742 O103    27.9061  43.2226  28.3877   O3        1 RES1   0.0000
  5743 O105    28.3877  52.3505  19.1992   O3        1 RES1   0.0000
  5744 O106    34.0341  52.3505  25.3878   O3        1 RES1   0.0000
  5745 O107    28.3877  45.7409  25.3878   O3        1 RES1   0.0000
  5746 O111    28.1166  42.9515  25.5983   O3        1 RES1   0.0000
  5747 O112    34.3052  37.3051  25.5983   O3        1 RES1   0.0000
  5748 O115    25.5983  45.9514  25.1167   O3        1 RES1   0.0000
  5749 O116    25.5983  52.1400  19.4703   O3        1 RES1   0.0000
  5750 O119    25.1167  43.4331  28.1166   O3        1 RES1   0.0000
  5751 O155    25.3522  43.1870  25.3522   O3        1 RES1   0.0000
  5752 O157    34.2696  45.9870  34.2696   O3        1 RES1   0.0000
  5753 O158    28.1522  52.1044  34.2696   O3        1 RES1   0.0000
  5754 O159    28.1522  45.9870  28.1522   O3        1 RES1   0.0000
  5755 O160    34.2696  52.1044  28.1522   O3        1 RES1   0.0000
  5756 Zr1     38.1281  44.7855  18.0467   Zr        1 RES1   0.0000
  5757 Zr2     24.2937  53.3059  35.8815   Zr        1 RES1   0.0000
  5758 Zr4     38.1281  53.3059  26.5403   Zr        1 RES1   0.0000
  5759 Zr5     18.0467  55.9629  26.9507   Zr        1 RES1   0.0000
  5760 Zr5     35.8815  38.1281  26.9507   Zr        1 RES1   0.0000
  5761 Zr6     35.8815  42.1285  35.4711   Zr        1 RES1   0.0000
  5762 Zr8     26.5403  55.9629  35.4711   Zr        1 RES1   0.0000
  5763 Zr9     26.9507  53.7163  20.2933   Zr        1 RES1   0.0000
  5764 Zr10    35.4711  53.7163  24.2937   Zr        1 RES1   0.0000
  5765 Zr12    35.4711  44.3751  38.1281   Zr        1 RES1   0.0000
  5766 Zr14    29.2107  53.7029  35.4577   Zr        1 RES1   0.0000
  5767 Zr16    33.2111  53.7029  26.9641   Zr        1 RES1   0.0000
  5768 Zr18    35.4577  47.0455  35.8681   Zr        1 RES1   0.0000
  5769 Zr20    26.9641  51.0459  35.8681   Zr        1 RES1   0.0000
  5770 Zr22    35.8681  53.2925  29.2107   Zr        1 RES1   0.0000
  5771 Zr24    35.8681  44.7989  33.2111   Zr        1 RES1   0.0000
  5772 O2      23.0247  55.1363  17.9775   O.2       1 RES1   0.0000
  5773 O4      21.5623  55.1363  26.6095   O.2       1 RES1   0.0000
  5774 O6      17.9775  40.8595  37.3015   Oco2      1 RES1   0.0000
  5775 O8      26.6095  39.3971  37.3015   Oco2      1 RES1   0.0000
  5776 O10     37.3015  35.8123  23.0247   Oco2      1 RES1   0.0000
  5777 O12     37.3015  44.4443  21.5623   Oco2      1 RES1   0.0000
  5778 O50     23.3707  53.3742  20.0873   O.2       1 RES1   0.0000
  5779 O52     21.2163  53.3742  24.4997   O.2       1 RES1   0.0000
  5780 O54     20.0873  41.2055  35.5394   Oco2      1 RES1   0.0000
  5781 O56     24.4997  39.0511  35.5394   Oco2      1 RES1   0.0000
  5782 O58     35.5394  37.9221  23.3707   Oco2      1 RES1   0.0000
  5783 O60     35.5394  42.3345  21.2163   Oco2      1 RES1   0.0000
  5784 O85     31.9457  44.1607  37.2854   Oco2      1 RES1   0.0000
  5785 O86     30.4761  36.0959  37.2854   Oco2      1 RES1   0.0000
  5786 O89     37.2854  49.7805  26.3259   Oco2      1 RES1   0.0000
  5787 O90     37.2854  48.3109  18.2611   Oco2      1 RES1   0.0000
  5788 O93     26.3259  55.1202  31.9457   O.2       1 RES1   0.0000
  5789 O94     18.2611  55.1202  30.4761   O.2       1 RES1   0.0000
  5790 O97     37.0340  46.2225  16.6809   O3        1 RES1   0.0000
  5791 O100    37.0340  51.8689  27.9061   O3        1 RES1   0.0000
  5792 O101    16.6809  54.8688  28.3877   O3        1 RES1   0.0000
  5793 O104    27.9061  54.8688  34.0341   O3        1 RES1   0.0000
  5794 O108    34.0341  45.7409  37.0340   O3        1 RES1   0.0000
  5795 O109    34.3052  42.9515  36.8235   O3        1 RES1   0.0000
  5796 O110    28.1166  37.3051  36.8235   O3        1 RES1   0.0000
  5797 O113    36.8235  52.1400  25.1167   O3        1 RES1   0.0000
  5798 O114    36.8235  45.9514  19.4703   O3        1 RES1   0.0000
  5799 O117    25.1167  54.6583  34.3052   O3        1 RES1   0.0000
  5800 O118    19.4703  54.6583  28.1166   O3        1 RES1   0.0000
  5801 O120    19.4703  43.4331  16.4704   O3        1 RES1   0.0000
  5802 O153    37.0696  43.1870  19.2348   O3        1 RES1   0.0000
  5803 O154    25.3522  54.9044  19.2348   O3        1 RES1   0.0000
  5804 O156    19.2348  54.9044  25.3522   O3        1 RES1   0.0000
  5805 O156    37.0696  37.0696  25.3522   O3        1 RES1   0.0000
  5806 Zr3     24.2937  44.7855  44.3751   Zr        1 RES1   0.0000
  5807 Zr7     26.5403  42.1285  44.7855   Zr        1 RES1   0.0000
  5808 Zr11    26.9507  44.3751  42.1285   Zr        1 RES1   0.0000
  5809 Zr13    33.2111  44.3885  53.2925   Zr        1 RES1   0.0000
  5810 Zr15    29.2107  44.3885  44.7989   Zr        1 RES1   0.0000
  5811 Zr17    35.4577  51.0459  44.3885   Zr        1 RES1   0.0000
  5812 Zr19    26.9641  47.0455  44.3885   Zr        1 RES1   0.0000
  5813 Zr21    26.5537  53.2925  51.0459   Zr        1 RES1   0.0000
  5814 Zr23    26.5537  44.7989  47.0455   Zr        1 RES1   0.0000
  5815 O1      21.5623  42.9551  35.8123   Oco2      1 RES1   0.0000
  5816 O3      23.0247  42.9551  44.4443   Oco2      1 RES1   0.0000
  5817 O5      17.9775  39.3971  42.9551   Oco2      1 RES1   0.0000
  5818 O7      26.6095  40.8595  42.9551   Oco2      1 RES1   0.0000
  5819 O9      25.1203  35.8123  39.3971   Oco2      1 RES1   0.0000
  5820 O11     25.1203  44.4443  40.8595   Oco2      1 RES1   0.0000
  5821 O13     31.9421  46.2189  53.3617   Oco2      1 RES1   0.0000
  5822 O14     30.4797  51.8725  53.3617   Oco2      1 RES1   0.0000
  5823 O15     30.4797  46.2189  44.7297   Oco2      1 RES1   0.0000
  5824 O16     31.9421  51.8725  44.7297   Oco2      1 RES1   0.0000
  5825 O17     35.5269  49.7769  46.2189   Oco2      1 RES1   0.0000
  5826 O18     35.5269  48.3145  51.8725   Oco2      1 RES1   0.0000
  5827 O19     26.8949  48.3145  46.2189   Oco2      1 RES1   0.0000
  5828 O20     26.8949  49.7769  51.8725   Oco2      1 RES1   0.0000
  5829 O21     28.3841  53.3617  49.7769   Oco2      1 RES1   0.0000
  5830 O22     34.0377  53.3617  48.3145   Oco2      1 RES1   0.0000
  5831 O23     28.3841  44.7297  48.3145   Oco2      1 RES1   0.0000
  5832 O24     34.0377  44.7297  49.7769   Oco2      1 RES1   0.0000
  5833 O25     21.2305  46.8092  36.1083   Oco2      1 RES1   0.0000
  5834 O26     23.3565  51.2822  36.1083   Oco2      1 RES1   0.0000
  5835 O27     23.3565  46.8092  44.1483   Oco2      1 RES1   0.0000
  5836 O28     21.2305  51.2822  44.1483   Oco2      1 RES1   0.0000
  5837 O29     18.2735  39.0653  46.8092   Oco2      1 RES1   0.0000
  5838 O30     18.2735  41.1913  51.2822   Oco2      1 RES1   0.0000
  5839 O31     26.3135  41.1913  46.8092   Oco2      1 RES1   0.0000
  5840 O32     26.3135  39.0653  51.2822   Oco2      1 RES1   0.0000
  5841 O33     28.9744  36.1083  39.0653   Oco2      1 RES1   0.0000
  5842 O34     33.4474  36.1083  41.1913   Oco2      1 RES1   0.0000
  5843 O35     28.9744  44.1483  41.1913   Oco2      1 RES1   0.0000
  5844 O36     33.4474  44.1483  39.0653   Oco2      1 RES1   0.0000
  5845 O37     32.2739  42.3648  53.0657   Oco2      1 RES1   0.0000
  5846 O38     30.1479  37.8918  53.0657   Oco2      1 RES1   0.0000
  5847 O39     30.1479  42.3648  45.0257   Oco2      1 RES1   0.0000
  5848 O40     32.2739  37.8918  45.0257   Oco2      1 RES1   0.0000
  5849 O41     35.2309  50.1087  42.3648   Oco2      1 RES1   0.0000
  5850 O42     35.2309  47.9827  37.8918   Oco2      1 RES1   0.0000
  5851 O43     27.1909  47.9827  42.3648   Oco2      1 RES1   0.0000
  5852 O44     27.1909  50.1087  37.8918   Oco2      1 RES1   0.0000
  5853 O45     24.5300  53.0657  50.1087   Oco2      1 RES1   0.0000
  5854 O46     20.0570  53.0657  47.9827   Oco2      1 RES1   0.0000
  5855 O47     24.5300  45.0257  47.9827   Oco2      1 RES1   0.0000
  5856 O48     20.0570  45.0257  50.1087   Oco2      1 RES1   0.0000
  5857 O49     21.2163  44.7172  37.9221   Oco2      1 RES1   0.0000
  5858 O51     23.3707  44.7172  42.3345   Oco2      1 RES1   0.0000
  5859 O53     20.0873  39.0511  44.7172   Oco2      1 RES1   0.0000
  5860 O55     24.4997  41.2055  44.7172   Oco2      1 RES1   0.0000
  5861 O57     26.8824  37.9221  39.0511   Oco2      1 RES1   0.0000
  5862 O59     26.8824  42.3345  41.2055   Oco2      1 RES1   0.0000
  5863 O61     32.2881  44.4568  51.2519   Oco2      1 RES1   0.0000
  5864 O62     30.1337  53.6346  51.2519   Oco2      1 RES1   0.0000
  5865 O63     30.1337  44.4568  46.8395   Oco2      1 RES1   0.0000
  5866 O64     32.2881  53.6346  46.8395   Oco2      1 RES1   0.0000
  5867 O65     33.4171  50.1229  44.4568   Oco2      1 RES1   0.0000
  5868 O66     33.4171  47.9685  53.6346   Oco2      1 RES1   0.0000
  5869 O67     29.0047  47.9685  44.4568   Oco2      1 RES1   0.0000
  5870 O68     29.0047  50.1229  53.6346   Oco2      1 RES1   0.0000
  5871 O69     26.6220  51.2519  50.1229   Oco2      1 RES1   0.0000
  5872 O70     35.7998  51.2519  47.9685   Oco2      1 RES1   0.0000
  5873 O71     26.6220  46.8395  47.9685   Oco2      1 RES1   0.0000
  5874 O72     35.7998  46.8395  50.1229   Oco2      1 RES1   0.0000
  5875 O73     21.5587  45.0133  51.8886   Oco2      1 RES1   0.0000
  5876 O74     23.0283  53.0781  51.8886   Oco2      1 RES1   0.0000
  5877 O75     23.0283  45.0133  46.2028   Oco2      1 RES1   0.0000
  5878 O76     21.5587  53.0781  46.2028   Oco2      1 RES1   0.0000
  5879 O77     34.0538  39.3935  45.0133   Oco2      1 RES1   0.0000
  5880 O78     34.0538  40.8631  53.0781   Oco2      1 RES1   0.0000
  5881 O79     28.3680  40.8631  45.0133   Oco2      1 RES1   0.0000
  5882 O80     28.3680  39.3935  53.0781   Oco2      1 RES1   0.0000
  5883 O81     27.1785  51.8886  39.3935   Oco2      1 RES1   0.0000
  5884 O82     35.2433  51.8886  40.8631   Oco2      1 RES1   0.0000
  5885 O83     27.1785  46.2028  40.8631   Oco2      1 RES1   0.0000
  5886 O84     35.2433  46.2028  39.3935   Oco2      1 RES1   0.0000
  5887 O87     30.4761  44.1607  42.9712   Oco2      1 RES1   0.0000
  5888 O88     31.9457  36.0959  42.9712   Oco2      1 RES1   0.0000
  5889 O91     25.1364  48.3109  44.1607   Oco2      1 RES1   0.0000
  5890 O92     25.1364  49.7805  36.0959   Oco2      1 RES1   0.0000
  5891 O95     26.3259  42.9712  48.3109   Oco2      1 RES1   0.0000
  5892 O96     18.2611  42.9712  49.7805   Oco2      1 RES1   0.0000
  5893 C1      20.6955  47.9596  36.0976   C.2       1 RES1   0.0000
  5894 C2      23.8915  50.1318  36.0976   C.2       1 RES1   0.0000
  5895 C3      23.8915  47.9596  44.1590   C.2       1 RES1   0.0000
  5896 C4      20.6955  50.1318  44.1590   C.2       1 RES1   0.0000
  5897 C5      18.2628  38.5303  47.9596   C.2       1 RES1   0.0000
  5898 C6      18.2628  41.7263  50.1318   C.2       1 RES1   0.0000
  5899 C7      26.3242  41.7263  47.9596   C.2       1 RES1   0.0000
  5900 C8      26.3242  38.5303  50.1318   C.2       1 RES1   0.0000
  5901 C9      30.1248  36.0976  38.5303   C.2       1 RES1   0.0000
  5902 C10     32.2970  36.0976  41.7263   C.2       1 RES1   0.0000
  5903 C11     30.1248  44.1590  41.7263   C.2       1 RES1   0.0000
  5904 C12     32.2970  44.1590  38.5303   C.2       1 RES1   0.0000
  5905 C13     32.8089  41.2144  53.0764   C.2       1 RES1   0.0000
  5906 C14     29.6129  39.0422  53.0764   C.2       1 RES1   0.0000
  5907 C15     29.6129  41.2144  45.0150   C.2       1 RES1   0.0000
  5908 C16     32.8089  39.0422  45.0150   C.2       1 RES1   0.0000
  5909 C17     35.2416  50.6437  41.2144   C.2       1 RES1   0.0000
  5910 C18     35.2416  47.4477  39.0422   C.2       1 RES1   0.0000
  5911 C19     27.1802  47.4477  41.2144   C.2       1 RES1   0.0000
  5912 C20     27.1802  50.6437  39.0422   C.2       1 RES1   0.0000
  5913 C21     23.3796  53.0764  50.6437   C.2       1 RES1   0.0000
  5914 C22     21.2074  53.0764  47.4477   C.2       1 RES1   0.0000
  5915 C23     23.3796  45.0150  47.4477   C.2       1 RES1   0.0000
  5916 C24     21.2074  45.0150  50.6437   C.2       1 RES1   0.0000
  5917 C25     21.6550  49.1438  36.1030   C.2       1 RES1   0.0000
  5918 C26     22.9320  48.9476  36.1030   C.2       1 RES1   0.0000
  5919 C27     22.9320  49.1438  44.1536   C.2       1 RES1   0.0000
  5920 C28     21.6550  48.9476  44.1536   C.2       1 RES1   0.0000
  5921 C29     18.2682  39.4898  49.1438   C.2       1 RES1   0.0000
  5922 C30     18.2682  40.7668  48.9476   C.2       1 RES1   0.0000
  5923 C31     26.3188  40.7668  49.1438   C.2       1 RES1   0.0000
  5924 C32     26.3188  39.4898  48.9476   C.2       1 RES1   0.0000
  5925 C33     31.3090  36.1030  39.4898   C.2       1 RES1   0.0000
  5926 C34     31.1128  36.1030  40.7668   C.2       1 RES1   0.0000
  5927 C35     31.3090  44.1536  40.7668   C.2       1 RES1   0.0000
  5928 C36     31.1128  44.1536  39.4898   C.2       1 RES1   0.0000
  5929 C37     31.8494  40.0302  53.0710   C.2       1 RES1   0.0000
  5930 C38     30.5724  40.2264  53.0710   C.2       1 RES1   0.0000
  5931 C39     30.5724  40.0302  45.0204   C.2       1 RES1   0.0000
  5932 C40     31.8494  40.2264  45.0204   C.2       1 RES1   0.0000
  5933 C41     35.2362  49.6842  40.0302   C.2       1 RES1   0.0000
  5934 C42     35.2362  48.4072  40.2264   C.2       1 RES1   0.0000
  5935 C43     27.1856  48.4072  40.0302   C.2       1 RES1   0.0000
  5936 C44     27.1856  49.6842  40.2264   C.2       1 RES1   0.0000
  5937 C45     22.1954  53.0710  49.6842   C.2       1 RES1   0.0000
  5938 C46     22.3916  53.0710  48.4072   C.2       1 RES1   0.0000
  5939 C47     22.1954  45.0204  48.4072   C.2       1 RES1   0.0000
  5940 C48     22.3916  45.0204  49.6842   C.2       1 RES1   0.0000
  5941 H1      21.3215  50.0123  36.1048   H         1 RES1   0.0000
  5942 H2      23.2655  48.0791  36.1048   H         1 RES1   0.0000
  5943 H3      23.2655  50.0123  44.1518   H         1 RES1   0.0000
  5944 H4      21.3215  48.0791  44.1518   H         1 RES1   0.0000
  5945 H5      18.2700  39.1563  50.0123   H         1 RES1   0.0000
  5946 H6      18.2700  41.1003  48.0791   H         1 RES1   0.0000
  5947 H7      26.3170  41.1003  50.0123   H         1 RES1   0.0000
  5948 H8      26.3170  39.1563  48.0791   H         1 RES1   0.0000
  5949 H9      32.1775  36.1048  39.1563   H         1 RES1   0.0000
  5950 H10     30.2443  36.1048  41.1003   H         1 RES1   0.0000
  5951 H11     32.1775  44.1518  41.1003   H         1 RES1   0.0000
  5952 H12     30.2443  44.1518  39.1563   H         1 RES1   0.0000
  5953 H13     32.1829  39.1617  53.0692   H         1 RES1   0.0000
  5954 H14     30.2389  41.0949  53.0692   H         1 RES1   0.0000
  5955 H15     30.2389  39.1617  45.0222   H         1 RES1   0.0000
  5956 H16     32.1829  41.0949  45.0222   H         1 RES1   0.0000
  5957 H17     35.2344  50.0177  39.1617   H         1 RES1   0.0000
  5958 H18     35.2344  48.0737  41.0949   H         1 RES1   0.0000
  5959 H19     27.1874  48.0737  39.1617   H         1 RES1   0.0000
  5960 H20     27.1874  50.0177  41.0949   H         1 RES1   0.0000
  5961 H21     21.3269  53.0692  50.0177   H         1 RES1   0.0000
  5962 H22     23.2601  53.0692  48.0737   H         1 RES1   0.0000
  5963 H23     21.3269  45.0222  48.0737   H         1 RES1   0.0000
  5964 H24     23.2601  45.0222  50.0177   H         1 RES1   0.0000
  5965 C49     21.2341  41.7299  35.6696   C.2       1 RES1   0.0000
  5966 C50     23.3529  38.5267  35.6696   C.2       1 RES1   0.0000
  5967 C51     23.3529  41.7299  44.5870   C.2       1 RES1   0.0000
  5968 C52     21.2341  38.5267  44.5870   C.2       1 RES1   0.0000
  5969 C53     17.8348  39.0689  41.7299   C.2       1 RES1   0.0000
  5970 C54     17.8348  41.1877  38.5267   C.2       1 RES1   0.0000
  5971 C55     26.7522  41.1877  41.7299   C.2       1 RES1   0.0000
  5972 C56     26.7522  39.0689  38.5267   C.2       1 RES1   0.0000
  5973 C57     23.8951  35.6696  39.0689   C.2       1 RES1   0.0000
  5974 C58     20.6919  35.6696  41.1877   C.2       1 RES1   0.0000
  5975 C59     23.8951  44.5870  41.1877   C.2       1 RES1   0.0000
  5976 C60     20.6919  44.5870  39.0689   C.2       1 RES1   0.0000
  5977 C61     32.2703  47.4441  53.5044   C.2       1 RES1   0.0000
  5978 C62     30.1515  50.6473  53.5044   C.2       1 RES1   0.0000
  5979 C63     30.1515  47.4441  44.5870   C.2       1 RES1   0.0000
  5980 C64     32.2703  50.6473  44.5870   C.2       1 RES1   0.0000
  5981 C65     35.6696  50.1051  47.4441   C.2       1 RES1   0.0000
  5982 C66     35.6696  47.9863  50.6473   C.2       1 RES1   0.0000
  5983 C67     26.7522  47.9863  47.4441   C.2       1 RES1   0.0000
  5984 C68     26.7522  50.1051  50.6473   C.2       1 RES1   0.0000
  5985 C69     29.6093  53.5044  50.1051   C.2       1 RES1   0.0000
  5986 C70     32.8125  53.5044  47.9863   C.2       1 RES1   0.0000
  5987 C71     29.6093  44.5870  47.9863   C.2       1 RES1   0.0000
  5988 C72     32.8125  44.5870  50.1051   C.2       1 RES1   0.0000
  5989 C73     22.4130  40.7793  35.6714   C.2       1 RES1   0.0000
  5990 C74     22.1740  39.4773  35.6714   C.2       1 RES1   0.0000
  5991 C75     22.1740  40.7793  44.5852   C.2       1 RES1   0.0000
  5992 C76     22.4130  39.4773  44.5852   C.2       1 RES1   0.0000
  5993 C77     17.8366  40.2478  40.7793   C.2       1 RES1   0.0000
  5994 C78     17.8366  40.0088  39.4773   C.2       1 RES1   0.0000
  5995 C79     26.7504  40.0088  40.7793   C.2       1 RES1   0.0000
  5996 C80     26.7504  40.2478  39.4773   C.2       1 RES1   0.0000
  5997 C81     22.9445  35.6714  40.2478   C.2       1 RES1   0.0000
  5998 C82     21.6425  35.6714  40.0088   C.2       1 RES1   0.0000
  5999 C83     22.9445  44.5852  40.0088   C.2       1 RES1   0.0000
  6000 C84     21.6425  44.5852  40.2478   C.2       1 RES1   0.0000
  6001 C85     31.0914  48.3947  53.5026   C.2       1 RES1   0.0000
  6002 C86     31.3304  49.6967  53.5026   C.2       1 RES1   0.0000
  6003 C87     31.3304  48.3947  44.5888   C.2       1 RES1   0.0000
  6004 C88     31.0914  49.6967  44.5888   C.2       1 RES1   0.0000
  6005 C89     35.6678  48.9262  48.3947   C.2       1 RES1   0.0000
  6006 C90     35.6678  49.1652  49.6967   C.2       1 RES1   0.0000
  6007 C91     26.7540  49.1652  48.3947   C.2       1 RES1   0.0000
  6008 C92     26.7540  48.9262  49.6967   C.2       1 RES1   0.0000
  6009 C93     30.5599  53.5026  48.9262   C.2       1 RES1   0.0000
  6010 C94     31.8619  53.5026  49.1652   C.2       1 RES1   0.0000
  6011 C95     30.5599  44.5888  49.1652   C.2       1 RES1   0.0000
  6012 C96     31.8619  44.5888  48.9262   C.2       1 RES1   0.0000
  6013 H25     23.2851  41.1021  35.6714   H         1 RES1   0.0000
  6014 H26     21.3019  39.1545  35.6714   H         1 RES1   0.0000
  6015 H27     21.3019  41.1021  44.5852   H         1 RES1   0.0000
  6016 H28     23.2851  39.1545  44.5852   H         1 RES1   0.0000
  6017 H29     17.8366  41.1199  41.1021   H         1 RES1   0.0000
  6018 H30     17.8366  39.1367  39.1545   H         1 RES1   0.0000
  6019 H31     26.7504  39.1367  41.1021   H         1 RES1   0.0000
  6020 H32     26.7504  41.1199  39.1545   H         1 RES1   0.0000
  6021 H33     23.2673  35.6714  41.1199   H         1 RES1   0.0000
  6022 H34     21.3197  35.6714  39.1367   H         1 RES1   0.0000
  6023 H35     23.2673  44.5852  39.1367   H         1 RES1   0.0000
  6024 H36     21.3197  44.5852  41.1199   H         1 RES1   0.0000
  6025 H37     30.2193  48.0719  53.5026   H         1 RES1   0.0000
  6026 H38     32.2025  50.0195  53.5026   H         1 RES1   0.0000
  6027 H39     32.2025  48.0719  44.5888   H         1 RES1   0.0000
  6028 H40     30.2193  50.0195  44.5888   H         1 RES1   0.0000
  6029 H41     35.6678  48.0541  48.0719   H         1 RES1   0.0000
  6030 H42     35.6678  50.0373  50.0195   H         1 RES1   0.0000
  6031 H43     26.7540  50.0373  48.0719   H         1 RES1   0.0000
  6032 H44     26.7540  48.0541  50.0195   H         1 RES1   0.0000
  6033 H45     30.2371  53.5026  48.0541   H         1 RES1   0.0000
  6034 H46     32.1847  53.5026  50.0373   H         1 RES1   0.0000
  6035 H47     30.2371  44.5888  50.0373   H         1 RES1   0.0000
  6036 H48     32.1847  44.5888  48.0541   H         1 RES1   0.0000
  6037 O97     19.1992  46.2225  52.3505   O3        1 RES1   0.0000
  6038 O98     25.3878  51.8689  52.3505   O3        1 RES1   0.0000
  6039 O99     25.3878  46.2225  45.7409   O3        1 RES1   0.0000
  6040 O101    34.5157  37.0340  46.2225   O3        1 RES1   0.0000
  6041 O102    34.5157  43.2226  51.8689   O3        1 RES1   0.0000
  6042 O103    27.9061  43.2226  46.2225   O3        1 RES1   0.0000
  6043 O105    28.3877  52.3505  37.0340   O3        1 RES1   0.0000
  6044 O106    34.0341  52.3505  43.2226   O3        1 RES1   0.0000
  6045 O107    28.3877  45.7409  43.2226   O3        1 RES1   0.0000
  6046 O111    28.1166  42.9515  43.4331   O3        1 RES1   0.0000
  6047 O112    34.3052  37.3051  43.4331   O3        1 RES1   0.0000
  6048 O115    25.5983  45.9514  42.9515   O3        1 RES1   0.0000
  6049 O116    25.5983  52.1400  37.3051   O3        1 RES1   0.0000
  6050 O119    25.1167  43.4331  45.9514   O3        1 RES1   0.0000
  6051 O155    25.3522  43.1870  43.1870   O3        1 RES1   0.0000
  6052 O157    34.2696  45.9870  52.1044   O3        1 RES1   0.0000
  6053 O158    28.1522  52.1044  52.1044   O3        1 RES1   0.0000
  6054 O159    28.1522  45.9870  45.9870   O3        1 RES1   0.0000
  6055 O160    34.2696  52.1044  45.9870   O3        1 RES1   0.0000
  6056 Zr1     20.2933  44.7855  53.7163   Zr        1 RES1   0.0000
  6057 Zr1     38.1281  44.7855  35.8815   Zr        1 RES1   0.0000
  6058 Zr2     24.2937  53.3059  53.7163   Zr        1 RES1   0.0000
  6059 Zr4     38.1281  53.3059  44.3751   Zr        1 RES1   0.0000
  6060 Zr5     18.0467  55.9629  44.7855   Zr        1 RES1   0.0000
  6061 Zr5     35.8815  38.1281  44.7855   Zr        1 RES1   0.0000
  6062 Zr6     35.8815  42.1285  53.3059   Zr        1 RES1   0.0000
  6063 Zr8     26.5403  55.9629  53.3059   Zr        1 RES1   0.0000
  6064 Zr9     26.9507  35.8815  55.9629   Zr        1 RES1   0.0000
  6065 Zr9     26.9507  53.7163  38.1281   Zr        1 RES1   0.0000
  6066 Zr10    35.4711  53.7163  42.1285   Zr        1 RES1   0.0000
  6067 Zr12    35.4711  44.3751  55.9629   Zr        1 RES1   0.0000
  6068 Zr14    29.2107  53.7029  53.2925   Zr        1 RES1   0.0000
  6069 Zr16    33.2111  53.7029  44.7989   Zr        1 RES1   0.0000
  6070 Zr18    35.4577  47.0455  53.7029   Zr        1 RES1   0.0000
  6071 Zr20    26.9641  51.0459  53.7029   Zr        1 RES1   0.0000
  6072 Zr22    35.8681  53.2925  47.0455   Zr        1 RES1   0.0000
  6073 Zr24    35.8681  44.7989  51.0459   Zr        1 RES1   0.0000
  6074 O2      23.0247  55.1363  35.8123   O.2       1 RES1   0.0000
  6075 O4      21.5623  55.1363  44.4443   O.2       1 RES1   0.0000
  6076 O6      17.9775  40.8595  55.1363   O.2       1 RES1   0.0000
  6077 O8      26.6095  39.3971  55.1363   O.2       1 RES1   0.0000
  6078 O10     37.3015  35.8123  40.8595   Oco2      1 RES1   0.0000
  6079 O12     37.3015  44.4443  39.3971   Oco2      1 RES1   0.0000
  6080 O50     23.3707  53.3742  37.9221   O.2       1 RES1   0.0000
  6081 O52     21.2163  53.3742  42.3345   O.2       1 RES1   0.0000
  6082 O54     20.0873  41.2055  53.3742   O.2       1 RES1   0.0000
  6083 O56     24.4997  39.0511  53.3742   O.2       1 RES1   0.0000
  6084 O58     35.5394  37.9221  41.2055   Oco2      1 RES1   0.0000
  6085 O60     35.5394  42.3345  39.0511   Oco2      1 RES1   0.0000
  6086 O85     31.9457  44.1607  55.1202   O.2       1 RES1   0.0000
  6087 O86     30.4761  36.0959  55.1202   O.2       1 RES1   0.0000
  6088 O89     37.2854  49.7805  44.1607   Oco2      1 RES1   0.0000
  6089 O90     37.2854  48.3109  36.0959   Oco2      1 RES1   0.0000
  6090 O93     26.3259  55.1202  49.7805   O.2       1 RES1   0.0000
  6091 O94     18.2611  55.1202  48.3109   O.2       1 RES1   0.0000
  6092 O97     37.0340  46.2225  34.5157   O3        1 RES1   0.0000
  6093 O100    37.0340  51.8689  45.7409   O3        1 RES1   0.0000
  6094 O101    16.6809  54.8688  46.2225   O3        1 RES1   0.0000
  6095 O104    27.9061  54.8688  51.8689   O3        1 RES1   0.0000
  6096 O105    28.3877  34.5157  54.8688   O3        1 RES1   0.0000
  6097 O108    34.0341  45.7409  54.8688   O3        1 RES1   0.0000
  6098 O109    34.3052  42.9515  54.6583   O3        1 RES1   0.0000
  6099 O110    28.1166  37.3051  54.6583   O3        1 RES1   0.0000
  6100 O113    36.8235  52.1400  42.9515   O3        1 RES1   0.0000
  6101 O114    36.8235  45.9514  37.3051   O3        1 RES1   0.0000
  6102 O117    25.1167  54.6583  52.1400   O3        1 RES1   0.0000
  6103 O118    19.4703  54.6583  45.9514   O3        1 RES1   0.0000
  6104 O120    19.4703  43.4331  34.3052   O3        1 RES1   0.0000
  6105 O153    19.2348  43.1870  54.9044   O3        1 RES1   0.0000
  6106 O153    37.0696  43.1870  37.0696   O3        1 RES1   0.0000
  6107 O154    25.3522  37.0696  54.9044   O3        1 RES1   0.0000
  6108 O154    25.3522  54.9044  37.0696   O3        1 RES1   0.0000
  6109 O156    19.2348  54.9044  43.1870   O3        1 RES1   0.0000
  6110 O156    37.0696  37.0696  43.1870   O3        1 RES1   0.0000
  6111 Zr2     42.1285  17.6363   0.2119   Zr        1 RES1   0.0000
  6112 Zr3     42.1285   9.1159   8.7055   Zr        1 RES1   0.0000
  6113 Zr7     44.3751   6.4589   9.1159   Zr        1 RES1   0.0000
  6114 Zr8     44.3751   2.4585  17.6363   Zr        1 RES1   0.0000
  6115 Zr9     44.7855   0.2119   2.4585   Zr        1 RES1   0.0000
  6116 Zr10    53.3059   0.2119   6.4589   Zr        1 RES1   0.0000
  6117 Zr11    44.7855   8.7055   6.4589   Zr        1 RES1   0.0000
  6118 Zr12    53.3059   8.7055   2.4585   Zr        1 RES1   0.0000
  6119 Zr13    51.0459   8.7189  17.6229   Zr        1 RES1   0.0000
  6120 Zr14    47.0455   0.1985  17.6229   Zr        1 RES1   0.0000
  6121 Zr15    47.0455   8.7189   9.1293   Zr        1 RES1   0.0000
  6122 Zr16    51.0459   0.1985   9.1293   Zr        1 RES1   0.0000
  6123 Zr17    53.2925  15.3763   8.7189   Zr        1 RES1   0.0000
  6124 Zr18    53.2925  11.3759   0.1985   Zr        1 RES1   0.0000
  6125 Zr19    44.7989  11.3759   8.7189   Zr        1 RES1   0.0000
  6126 Zr20    44.7989  15.3763   0.1985   Zr        1 RES1   0.0000
  6127 Zr21    44.3885  17.6229  15.3763   Zr        1 RES1   0.0000
  6128 Zr23    44.3885   9.1293  11.3759   Zr        1 RES1   0.0000
  6129 O1      39.3971   7.2855   0.1427   Oco2      1 RES1   0.0000
  6130 O2      40.8595   1.6319   0.1427   Oco2      1 RES1   0.0000
  6131 O3      40.8595   7.2855   8.7747   Oco2      1 RES1   0.0000
  6132 O4      39.3971   1.6319   8.7747   Oco2      1 RES1   0.0000
  6133 O5      35.8123   3.7275   7.2855   Oco2      1 RES1   0.0000
  6134 O6      35.8123   5.1899   1.6319   Oco2      1 RES1   0.0000
  6135 O7      44.4443   5.1899   7.2855   Oco2      1 RES1   0.0000
  6136 O8      44.4443   3.7275   1.6319   Oco2      1 RES1   0.0000
  6137 O9      42.9551   0.1427   3.7275   Oco2      1 RES1   0.0000
  6138 O11     42.9551   8.7747   5.1899   Oco2      1 RES1   0.0000
  6139 O13     49.7769  10.5493  17.6921   Oco2      1 RES1   0.0000
  6140 O14     48.3145  16.2029  17.6921   Oco2      1 RES1   0.0000
  6141 O15     48.3145  10.5493   9.0601   Oco2      1 RES1   0.0000
  6142 O16     49.7769  16.2029   9.0601   Oco2      1 RES1   0.0000
  6143 O17     53.3617  14.1073  10.5493   Oco2      1 RES1   0.0000
  6144 O18     53.3617  12.6449  16.2029   Oco2      1 RES1   0.0000
  6145 O19     44.7297  12.6449  10.5493   Oco2      1 RES1   0.0000
  6146 O20     44.7297  14.1073  16.2029   Oco2      1 RES1   0.0000
  6147 O21     46.2189  17.6921  14.1073   Oco2      1 RES1   0.0000
  6148 O22     51.8725  17.6921  12.6449   Oco2      1 RES1   0.0000
  6149 O23     46.2189   9.0601  12.6449   Oco2      1 RES1   0.0000
  6150 O24     51.8725   9.0601  14.1073   Oco2      1 RES1   0.0000
  6151 O25     39.0653  11.1396   0.4387   Oco2      1 RES1   0.0000
  6152 O26     41.1913  15.6126   0.4387   Oco2      1 RES1   0.0000
  6153 O27     41.1913  11.1396   8.4787   Oco2      1 RES1   0.0000
  6154 O28     39.0653  15.6126   8.4787   Oco2      1 RES1   0.0000
  6155 O29     36.1083   3.3957  11.1396   Oco2      1 RES1   0.0000
  6156 O30     36.1083   5.5217  15.6126   Oco2      1 RES1   0.0000
  6157 O31     44.1483   5.5217  11.1396   Oco2      1 RES1   0.0000
  6158 O32     44.1483   3.3957  15.6126   Oco2      1 RES1   0.0000
  6159 O33     46.8092   0.4387   3.3957   Oco2      1 RES1   0.0000
  6160 O34     51.2822   0.4387   5.5217   Oco2      1 RES1   0.0000
  6161 O35     46.8092   8.4787   5.5217   Oco2      1 RES1   0.0000
  6162 O36     51.2822   8.4787   3.3957   Oco2      1 RES1   0.0000
  6163 O37     50.1087   6.6952  17.3961   Oco2      1 RES1   0.0000
  6164 O38     47.9827   2.2222  17.3961   Oco2      1 RES1   0.0000
  6165 O39     47.9827   6.6952   9.3561   Oco2      1 RES1   0.0000
  6166 O40     50.1087   2.2222   9.3561   Oco2      1 RES1   0.0000
  6167 O41     53.0657  14.4391   6.6952   Oco2      1 RES1   0.0000
  6168 O42     53.0657  12.3131   2.2222   Oco2      1 RES1   0.0000
  6169 O43     45.0257  12.3131   6.6952   Oco2      1 RES1   0.0000
  6170 O44     45.0257  14.4391   2.2222   Oco2      1 RES1   0.0000
  6171 O45     42.3648  17.3961  14.4391   Oco2      1 RES1   0.0000
  6172 O46     37.8918  17.3961  12.3131   Oco2      1 RES1   0.0000
  6173 O47     42.3648   9.3561  12.3131   Oco2      1 RES1   0.0000
  6174 O48     37.8918   9.3561  14.4391   Oco2      1 RES1   0.0000
  6175 O49     39.0511   9.0476   2.2525   Oco2      1 RES1   0.0000
  6176 O50     41.2055  -0.1302   2.2525   Oco2      1 RES1   0.0000
  6177 O51     41.2055   9.0476   6.6649   Oco2      1 RES1   0.0000
  6178 O52     39.0511  -0.1302   6.6649   Oco2      1 RES1   0.0000
  6179 O53     37.9221   3.3815   9.0476   Oco2      1 RES1   0.0000
  6180 O54     37.9221   5.5359  -0.1302   Oco2      1 RES1   0.0000
  6181 O55     42.3345   5.5359   9.0476   Oco2      1 RES1   0.0000
  6182 O56     42.3345   3.3815  -0.1302   Oco2      1 RES1   0.0000
  6183 O57     44.7172   2.2525   3.3815   Oco2      1 RES1   0.0000
  6184 O59     44.7172   6.6649   5.5359   Oco2      1 RES1   0.0000
  6185 O61     50.1229   8.7872  15.5823   Oco2      1 RES1   0.0000
  6186 O62     47.9685  17.9650  15.5823   Oco2      1 RES1   0.0000
  6187 O63     47.9685   8.7872  11.1699   Oco2      1 RES1   0.0000
  6188 O64     50.1229  17.9650  11.1699   Oco2      1 RES1   0.0000
  6189 O65     51.2519  14.4533   8.7872   Oco2      1 RES1   0.0000
  6190 O66     51.2519  12.2989  17.9650   Oco2      1 RES1   0.0000
  6191 O67     46.8395  12.2989   8.7872   Oco2      1 RES1   0.0000
  6192 O68     46.8395  14.4533  17.9650   Oco2      1 RES1   0.0000
  6193 O69     44.4568  15.5823  14.4533   Oco2      1 RES1   0.0000
  6194 O70     53.6346  15.5823  12.2989   Oco2      1 RES1   0.0000
  6195 O71     44.4568  11.1699  12.2989   Oco2      1 RES1   0.0000
  6196 O72     53.6346  11.1699  14.4533   Oco2      1 RES1   0.0000
  6197 O73     39.3935   9.3437  16.2190   Oco2      1 RES1   0.0000
  6198 O74     40.8631  17.4085  16.2190   Oco2      1 RES1   0.0000
  6199 O75     40.8631   9.3437  10.5332   Oco2      1 RES1   0.0000
  6200 O76     39.3935  17.4085  10.5332   Oco2      1 RES1   0.0000
  6201 O77     51.8886   3.7239   9.3437   Oco2      1 RES1   0.0000
  6202 O78     51.8886   5.1935  17.4085   Oco2      1 RES1   0.0000
  6203 O79     46.2028   5.1935   9.3437   Oco2      1 RES1   0.0000
  6204 O80     46.2028   3.7239  17.4085   Oco2      1 RES1   0.0000
  6205 O81     45.0133  16.2190   3.7239   Oco2      1 RES1   0.0000
  6206 O82     53.0781  16.2190   5.1935   Oco2      1 RES1   0.0000
  6207 O83     45.0133  10.5332   5.1935   Oco2      1 RES1   0.0000
  6208 O84     53.0781  10.5332   3.7239   Oco2      1 RES1   0.0000
  6209 O85     49.7805   8.4911   1.6158   Oco2      1 RES1   0.0000
  6210 O86     48.3109   0.4263   1.6158   Oco2      1 RES1   0.0000
  6211 O87     48.3109   8.4911   7.3016   Oco2      1 RES1   0.0000
  6212 O88     49.7805   0.4263   7.3016   Oco2      1 RES1   0.0000
  6213 O91     42.9712  12.6413   8.4911   Oco2      1 RES1   0.0000
  6214 O92     42.9712  14.1109   0.4263   Oco2      1 RES1   0.0000
  6215 O93     44.1607   1.6158  14.1109   Oco2      1 RES1   0.0000
  6216 O94     36.0959   1.6158  12.6413   Oco2      1 RES1   0.0000
  6217 O95     44.1607   7.3016  12.6413   Oco2      1 RES1   0.0000
  6218 O96     36.0959   7.3016  14.1109   Oco2      1 RES1   0.0000
  6219 C1      38.5303  12.2900   0.4280   C.2       1 RES1   0.0000
  6220 C2      41.7263  14.4622   0.4280   C.2       1 RES1   0.0000
  6221 C3      41.7263  12.2900   8.4894   C.2       1 RES1   0.0000
  6222 C4      38.5303  14.4622   8.4894   C.2       1 RES1   0.0000
  6223 C5      36.0976   2.8607  12.2900   C.2       1 RES1   0.0000
  6224 C6      36.0976   6.0567  14.4622   C.2       1 RES1   0.0000
  6225 C7      44.1590   6.0567  12.2900   C.2       1 RES1   0.0000
  6226 C8      44.1590   2.8607  14.4622   C.2       1 RES1   0.0000
  6227 C9      47.9596   0.4280   2.8607   C.2       1 RES1   0.0000
  6228 C10     50.1318   0.4280   6.0567   C.2       1 RES1   0.0000
  6229 C11     47.9596   8.4894   6.0567   C.2       1 RES1   0.0000
  6230 C12     50.1318   8.4894   2.8607   C.2       1 RES1   0.0000
  6231 C13     50.6437   5.5448  17.4068   C.2       1 RES1   0.0000
  6232 C14     47.4477   3.3726  17.4068   C.2       1 RES1   0.0000
  6233 C15     47.4477   5.5448   9.3454   C.2       1 RES1   0.0000
  6234 C16     50.6437   3.3726   9.3454   C.2       1 RES1   0.0000
  6235 C17     53.0764  14.9741   5.5448   C.2       1 RES1   0.0000
  6236 C18     53.0764  11.7781   3.3726   C.2       1 RES1   0.0000
  6237 C19     45.0150  11.7781   5.5448   C.2       1 RES1   0.0000
  6238 C20     45.0150  14.9741   3.3726   C.2       1 RES1   0.0000
  6239 C21     41.2144  17.4068  14.9741   C.2       1 RES1   0.0000
  6240 C22     39.0422  17.4068  11.7781   C.2       1 RES1   0.0000
  6241 C23     41.2144   9.3454  11.7781   C.2       1 RES1   0.0000
  6242 C24     39.0422   9.3454  14.9741   C.2       1 RES1   0.0000
  6243 C25     39.4898  13.4742   0.4334   C.2       1 RES1   0.0000
  6244 C26     40.7668  13.2780   0.4334   C.2       1 RES1   0.0000
  6245 C27     40.7668  13.4742   8.4840   C.2       1 RES1   0.0000
  6246 C28     39.4898  13.2780   8.4840   C.2       1 RES1   0.0000
  6247 C29     36.1030   3.8202  13.4742   C.2       1 RES1   0.0000
  6248 C30     36.1030   5.0972  13.2780   C.2       1 RES1   0.0000
  6249 C31     44.1536   5.0972  13.4742   C.2       1 RES1   0.0000
  6250 C32     44.1536   3.8202  13.2780   C.2       1 RES1   0.0000
  6251 C33     49.1438   0.4334   3.8202   C.2       1 RES1   0.0000
  6252 C34     48.9476   0.4334   5.0972   C.2       1 RES1   0.0000
  6253 C35     49.1438   8.4840   5.0972   C.2       1 RES1   0.0000
  6254 C36     48.9476   8.4840   3.8202   C.2       1 RES1   0.0000
  6255 C37     49.6842   4.3606  17.4014   C.2       1 RES1   0.0000
  6256 C38     48.4072   4.5568  17.4014   C.2       1 RES1   0.0000
  6257 C39     48.4072   4.3606   9.3508   C.2       1 RES1   0.0000
  6258 C40     49.6842   4.5568   9.3508   C.2       1 RES1   0.0000
  6259 C41     53.0710  14.0146   4.3606   C.2       1 RES1   0.0000
  6260 C42     53.0710  12.7376   4.5568   C.2       1 RES1   0.0000
  6261 C43     45.0204  12.7376   4.3606   C.2       1 RES1   0.0000
  6262 C44     45.0204  14.0146   4.5568   C.2       1 RES1   0.0000
  6263 C45     40.0302  17.4014  14.0146   C.2       1 RES1   0.0000
  6264 C46     40.2264  17.4014  12.7376   C.2       1 RES1   0.0000
  6265 C47     40.0302   9.3508  12.7376   C.2       1 RES1   0.0000
  6266 C48     40.2264   9.3508  14.0146   C.2       1 RES1   0.0000
  6267 H1      39.1563  14.3427   0.4352   H         1 RES1   0.0000
  6268 H2      41.1003  12.4095   0.4352   H         1 RES1   0.0000
  6269 H3      41.1003  14.3427   8.4822   H         1 RES1   0.0000
  6270 H4      39.1563  12.4095   8.4822   H         1 RES1   0.0000
  6271 H5      36.1048   3.4867  14.3427   H         1 RES1   0.0000
  6272 H6      36.1048   5.4307  12.4095   H         1 RES1   0.0000
  6273 H7      44.1518   5.4307  14.3427   H         1 RES1   0.0000
  6274 H8      44.1518   3.4867  12.4095   H         1 RES1   0.0000
  6275 H9      50.0123   0.4352   3.4867   H         1 RES1   0.0000
  6276 H10     48.0791   0.4352   5.4307   H         1 RES1   0.0000
  6277 H11     50.0123   8.4822   5.4307   H         1 RES1   0.0000
  6278 H12     48.0791   8.4822   3.4867   H         1 RES1   0.0000
  6279 H13     50.0177   3.4921  17.3996   H         1 RES1   0.0000
  6280 H14     48.0737   5.4253  17.3996   H         1 RES1   0.0000
  6281 H15     48.0737   3.4921   9.3526   H         1 RES1   0.0000
  6282 H16     50.0177   5.4253   9.3526   H         1 RES1   0.0000
  6283 H17     53.0692  14.3481   3.4921   H         1 RES1   0.0000
  6284 H18     53.0692  12.4041   5.4253   H         1 RES1   0.0000
  6285 H19     45.0222  12.4041   3.4921   H         1 RES1   0.0000
  6286 H20     45.0222  14.3481   5.4253   H         1 RES1   0.0000
  6287 H21     39.1617  17.3996  14.3481   H         1 RES1   0.0000
  6288 H22     41.0949  17.3996  12.4041   H         1 RES1   0.0000
  6289 H23     39.1617   9.3526  12.4041   H         1 RES1   0.0000
  6290 H24     41.0949   9.3526  14.3481   H         1 RES1   0.0000
  6291 C49     39.0689   6.0603   0.0000   C.2       1 RES1   0.0000
  6292 C50     41.1877   2.8571   0.0000   C.2       1 RES1   0.0000
  6293 C51     41.1877   6.0603   8.9174   C.2       1 RES1   0.0000
  6294 C52     39.0689   2.8571   8.9174   C.2       1 RES1   0.0000
  6295 C53     35.6696   3.3993   6.0603   C.2       1 RES1   0.0000
  6296 C54     35.6696   5.5181   2.8571   C.2       1 RES1   0.0000
  6297 C55     44.5870   5.5181   6.0603   C.2       1 RES1   0.0000
  6298 C56     44.5870   3.3993   2.8571   C.2       1 RES1   0.0000
  6299 C57     41.7299   0.0000   3.3993   C.2       1 RES1   0.0000
  6300 C58     38.5267   0.0000   5.5181   C.2       1 RES1   0.0000
  6301 C59     41.7299   8.9174   5.5181   C.2       1 RES1   0.0000
  6302 C60     38.5267   8.9174   3.3993   C.2       1 RES1   0.0000
  6303 C61     50.1051  11.7745  17.8348   C.2       1 RES1   0.0000
  6304 C62     47.9863  14.9777  17.8348   C.2       1 RES1   0.0000
  6305 C63     47.9863  11.7745   8.9174   C.2       1 RES1   0.0000
  6306 C64     50.1051  14.9777   8.9174   C.2       1 RES1   0.0000
  6307 C65     53.5044  14.4355  11.7745   C.2       1 RES1   0.0000
  6308 C66     53.5044  12.3167  14.9777   C.2       1 RES1   0.0000
  6309 C67     44.5870  12.3167  11.7745   C.2       1 RES1   0.0000
  6310 C68     44.5870  14.4355  14.9777   C.2       1 RES1   0.0000
  6311 C69     47.4441  17.8348  14.4355   C.2       1 RES1   0.0000
  6312 C70     50.6473  17.8348  12.3167   C.2       1 RES1   0.0000
  6313 C71     47.4441   8.9174  12.3167   C.2       1 RES1   0.0000
  6314 C72     50.6473   8.9174  14.4355   C.2       1 RES1   0.0000
  6315 C73     40.2478   5.1097   0.0018   C.2       1 RES1   0.0000
  6316 C74     40.0088   3.8077   0.0018   C.2       1 RES1   0.0000
  6317 C75     40.0088   5.1097   8.9156   C.2       1 RES1   0.0000
  6318 C76     40.2478   3.8077   8.9156   C.2       1 RES1   0.0000
  6319 C77     35.6714   4.5782   5.1097   C.2       1 RES1   0.0000
  6320 C78     35.6714   4.3392   3.8077   C.2       1 RES1   0.0000
  6321 C79     44.5852   4.3392   5.1097   C.2       1 RES1   0.0000
  6322 C80     44.5852   4.5782   3.8077   C.2       1 RES1   0.0000
  6323 C81     40.7793   0.0018   4.5782   C.2       1 RES1   0.0000
  6324 C82     39.4773   0.0018   4.3392   C.2       1 RES1   0.0000
  6325 C83     40.7793   8.9156   4.3392   C.2       1 RES1   0.0000
  6326 C84     39.4773   8.9156   4.5782   C.2       1 RES1   0.0000
  6327 C85     48.9262  12.7251  17.8330   C.2       1 RES1   0.0000
  6328 C86     49.1652  14.0271  17.8330   C.2       1 RES1   0.0000
  6329 C87     49.1652  12.7251   8.9192   C.2       1 RES1   0.0000
  6330 C88     48.9262  14.0271   8.9192   C.2       1 RES1   0.0000
  6331 C89     53.5026  13.2566  12.7251   C.2       1 RES1   0.0000
  6332 C90     53.5026  13.4956  14.0271   C.2       1 RES1   0.0000
  6333 C91     44.5888  13.4956  12.7251   C.2       1 RES1   0.0000
  6334 C92     44.5888  13.2566  14.0271   C.2       1 RES1   0.0000
  6335 C93     48.3947  17.8330  13.2566   C.2       1 RES1   0.0000
  6336 C94     49.6967  17.8330  13.4956   C.2       1 RES1   0.0000
  6337 C95     48.3947   8.9192  13.4956   C.2       1 RES1   0.0000
  6338 C96     49.6967   8.9192  13.2566   C.2       1 RES1   0.0000
  6339 H25     41.1199   5.4325   0.0018   H         1 RES1   0.0000
  6340 H26     39.1367   3.4849   0.0018   H         1 RES1   0.0000
  6341 H27     39.1367   5.4325   8.9156   H         1 RES1   0.0000
  6342 H28     41.1199   3.4849   8.9156   H         1 RES1   0.0000
  6343 H29     35.6714   5.4503   5.4325   H         1 RES1   0.0000
  6344 H30     35.6714   3.4671   3.4849   H         1 RES1   0.0000
  6345 H31     44.5852   3.4671   5.4325   H         1 RES1   0.0000
  6346 H32     44.5852   5.4503   3.4849   H         1 RES1   0.0000
  6347 H33     41.1021   0.0018   5.4503   H         1 RES1   0.0000
  6348 H34     39.1545   0.0018   3.4671   H         1 RES1   0.0000
  6349 H35     41.1021   8.9156   3.4671   H         1 RES1   0.0000
  6350 H36     39.1545   8.9156   5.4503   H         1 RES1   0.0000
  6351 H37     48.0541  12.4023  17.8330   H         1 RES1   0.0000
  6352 H38     50.0373  14.3499  17.8330   H         1 RES1   0.0000
  6353 H39     50.0373  12.4023   8.9192   H         1 RES1   0.0000
  6354 H40     48.0541  14.3499   8.9192   H         1 RES1   0.0000
  6355 H41     53.5026  12.3845  12.4023   H         1 RES1   0.0000
  6356 H42     53.5026  14.3677  14.3499   H         1 RES1   0.0000
  6357 H43     44.5888  14.3677  12.4023   H         1 RES1   0.0000
  6358 H44     44.5888  12.3845  14.3499   H         1 RES1   0.0000
  6359 H45     48.0719  17.8330  12.3845   H         1 RES1   0.0000
  6360 H46     50.0195  17.8330  14.3677   H         1 RES1   0.0000
  6361 H47     48.0719   8.9192  14.3677   H         1 RES1   0.0000
  6362 H48     50.0195   8.9192  12.3845   H         1 RES1   0.0000
  6363 O98     43.2226  16.1993  16.6809   O3        1 RES1   0.0000
  6364 O99     43.2226  10.5529  10.0713   O3        1 RES1   0.0000
  6365 O101    52.3505   1.3644  10.5529   O3        1 RES1   0.0000
  6366 O102    52.3505   7.5530  16.1993   O3        1 RES1   0.0000
  6367 O103    45.7409   7.5530  10.5529   O3        1 RES1   0.0000
  6368 O104    45.7409   1.3644  16.1993   O3        1 RES1   0.0000
  6369 O105    46.2225  16.6809   1.3644   O3        1 RES1   0.0000
  6370 O106    51.8689  16.6809   7.5530   O3        1 RES1   0.0000
  6371 O107    46.2225  10.0713   7.5530   O3        1 RES1   0.0000
  6372 O108    51.8689  10.0713   1.3644   O3        1 RES1   0.0000
  6373 O109    52.1400   7.2819   1.1539   O3        1 RES1   0.0000
  6374 O110    45.9514   1.6355   1.1539   O3        1 RES1   0.0000
  6375 O111    45.9514   7.2819   7.7635   O3        1 RES1   0.0000
  6376 O112    52.1400   1.6355   7.7635   O3        1 RES1   0.0000
  6377 O115    43.4331  10.2818   7.2819   O3        1 RES1   0.0000
  6378 O116    43.4331  16.4704   1.6355   O3        1 RES1   0.0000
  6379 O117    42.9515   1.1539  16.4704   O3        1 RES1   0.0000
  6380 O118    37.3051   1.1539  10.2818   O3        1 RES1   0.0000
  6381 O119    42.9515   7.7635  10.2818   O3        1 RES1   0.0000
  6382 O154    43.1870   1.4000   1.4000   O3        1 RES1   0.0000
  6383 O155    43.1870   7.5174   7.5174   O3        1 RES1   0.0000
  6384 O157    52.1044  10.3174  16.4348   O3        1 RES1   0.0000
  6385 O158    45.9870  16.4348  16.4348   O3        1 RES1   0.0000
  6386 O159    45.9870  10.3174  10.3174   O3        1 RES1   0.0000
  6387 O160    52.1044  16.4348  10.3174   O3        1 RES1   0.0000
  6388 Zr1     55.9629   9.1159   0.2119   Zr        1 RES1   0.0000
  6389 Zr2     42.1285  -0.1985   0.2119   Zr        1 RES1   0.0000
  6390 Zr2     42.1285  -0.1985  18.0467   Zr        1 RES1   0.0000
  6391 Zr2     42.1285  17.6363  18.0467   Zr        1 RES1   0.0000
  6392 Zr4     55.9629  -0.1985   8.7055   Zr        1 RES1   0.0000
  6393 Zr4     55.9629  17.6363   8.7055   Zr        1 RES1   0.0000
  6394 Zr5     53.7163   2.4585   9.1159   Zr        1 RES1   0.0000
  6395 Zr6     53.7163   6.4589  -0.1985   Zr        1 RES1   0.0000
  6396 Zr6     53.7163   6.4589  17.6363   Zr        1 RES1   0.0000
  6397 Zr8     44.3751   2.4585  -0.1985   Zr        1 RES1   0.0000
  6398 Zr8     44.3751  20.2933  -0.1985   Zr        1 RES1   0.0000
  6399 Zr8     44.3751  20.2933  17.6363   Zr        1 RES1   0.0000
  6400 Zr9     44.7855   0.2119  20.2933   Zr        1 RES1   0.0000
  6401 Zr9     44.7855  18.0467   2.4585   Zr        1 RES1   0.0000
  6402 Zr10    53.3059  18.0467   6.4589   Zr        1 RES1   0.0000
  6403 Zr12    53.3059   8.7055  20.2933   Zr        1 RES1   0.0000
  6404 Zr13    51.0459   8.7189  -0.2119   Zr        1 RES1   0.0000
  6405 Zr14    47.0455   0.1985  -0.2119   Zr        1 RES1   0.0000
  6406 Zr14    47.0455  18.0333  -0.2119   Zr        1 RES1   0.0000
  6407 Zr14    47.0455  18.0333  17.6229   Zr        1 RES1   0.0000
  6408 Zr16    51.0459  18.0333   9.1293   Zr        1 RES1   0.0000
  6409 Zr17    53.2925  -2.4585   8.7189   Zr        1 RES1   0.0000
  6410 Zr18    53.2925  11.3759  18.0333   Zr        1 RES1   0.0000
  6411 Zr20    44.7989  -2.4585   0.1985   Zr        1 RES1   0.0000
  6412 Zr20    44.7989  -2.4585  18.0333   Zr        1 RES1   0.0000
  6413 Zr20    44.7989  15.3763  18.0333   Zr        1 RES1   0.0000
  6414 Zr21    44.3885  -0.2119  15.3763   Zr        1 RES1   0.0000
  6415 Zr21    44.3885  17.6229  -2.4585   Zr        1 RES1   0.0000
  6416 Zr22    53.7029  -0.2119  11.3759   Zr        1 RES1   0.0000
  6417 Zr22    53.7029  17.6229  11.3759   Zr        1 RES1   0.0000
  6418 Zr24    53.7029   9.1293  -2.4585   Zr        1 RES1   0.0000
  6419 Zr24    53.7029   9.1293  15.3763   Zr        1 RES1   0.0000
  6420 O2      40.8595  19.4667   0.1427   Oco2      1 RES1   0.0000
  6421 O4      39.3971  19.4667   8.7747   Oco2      1 RES1   0.0000
  6422 O6      35.8123   5.1899  19.4667   Oco2      1 RES1   0.0000
  6423 O8      44.4443   3.7275  19.4667   Oco2      1 RES1   0.0000
  6424 O10     55.1363   0.1427   5.1899   O.2       1 RES1   0.0000
  6425 O12     55.1363   8.7747   3.7275   O.2       1 RES1   0.0000
  6426 O14     48.3145  -1.6319  17.6921   O.2       1 RES1   0.0000
  6427 O16     49.7769  -1.6319   9.0601   O.2       1 RES1   0.0000
  6428 O18     53.3617  12.6449  -1.6319   O.2       1 RES1   0.0000
  6429 O20     44.7297  14.1073  -1.6319   O.2       1 RES1   0.0000
  6430 O50     41.2055  17.7046   2.2525   Oco2      1 RES1   0.0000
  6431 O52     39.0511  17.7046   6.6649   Oco2      1 RES1   0.0000
  6432 O54     37.9221   5.5359  17.7046   Oco2      1 RES1   0.0000
  6433 O56     42.3345   3.3815  17.7046   Oco2      1 RES1   0.0000
  6434 O58     53.3742   2.2525   5.5359   O.2       1 RES1   0.0000
  6435 O60     53.3742   6.6649   3.3815   O.2       1 RES1   0.0000
  6436 O62     47.9685   0.1302  15.5823   O.2       1 RES1   0.0000
  6437 O64     50.1229   0.1302  11.1699   O.2       1 RES1   0.0000
  6438 O66     51.2519  12.2989   0.1302   O.2       1 RES1   0.0000
  6439 O68     46.8395  14.4533   0.1302   O.2       1 RES1   0.0000
  6440 O73     39.3935   9.3437  -1.6158   O.2       1 RES1   0.0000
  6441 O74     40.8631  17.4085  -1.6158   O.2       1 RES1   0.0000
  6442 O81     45.0133  -1.6158   3.7239   O.2       1 RES1   0.0000
  6443 O82     53.0781  -1.6158   5.1935   O.2       1 RES1   0.0000
  6444 O85     49.7805   8.4911  19.4506   Oco2      1 RES1   0.0000
  6445 O86     48.3109   0.4263  19.4506   Oco2      1 RES1   0.0000
  6446 O89     55.1202  14.1109   8.4911   O.2       1 RES1   0.0000
  6447 O90     55.1202  12.6413   0.4263   O.2       1 RES1   0.0000
  6448 O93     44.1607  19.4506  14.1109   Oco2      1 RES1   0.0000
  6449 O94     36.0959  19.4506  12.6413   Oco2      1 RES1   0.0000
  6450 O97     54.8688  10.5529  -1.1539   O3        1 RES1   0.0000
  6451 O98     43.2226  16.1993  -1.1539   O3        1 RES1   0.0000
  6452 O100    54.8688  16.1993  10.0713   O3        1 RES1   0.0000
  6453 O104    45.7409  19.1992  16.1993   O3        1 RES1   0.0000
  6454 O105    46.2225  -1.1539   1.3644   O3        1 RES1   0.0000
  6455 O105    46.2225  -1.1539  19.1992   O3        1 RES1   0.0000
  6456 O106    51.8689  -1.1539   7.5530   O3        1 RES1   0.0000
  6457 O108    51.8689  10.0713  19.1992   O3        1 RES1   0.0000
  6458 O109    52.1400   7.2819  18.9887   O3        1 RES1   0.0000
  6459 O110    45.9514   1.6355  18.9887   O3        1 RES1   0.0000
  6460 O113    54.6583  -1.3644   7.2819   O3        1 RES1   0.0000
  6461 O113    54.6583  16.4704   7.2819   O3        1 RES1   0.0000
  6462 O114    54.6583  10.2818   1.6355   O3        1 RES1   0.0000
  6463 O116    43.4331  -1.3644   1.6355   O3        1 RES1   0.0000
  6464 O117    42.9515  18.9887  -1.3644   O3        1 RES1   0.0000
  6465 O117    42.9515  18.9887  16.4704   O3        1 RES1   0.0000
  6466 O118    37.3051  18.9887  10.2818   O3        1 RES1   0.0000
  6467 O120    37.3051   7.7635  -1.3644   O3        1 RES1   0.0000
  6468 O153    54.9044   7.5174   1.4000   O3        1 RES1   0.0000
  6469 O154    43.1870   1.4000  19.2348   O3        1 RES1   0.0000
  6470 O154    43.1870  19.2348   1.4000   O3        1 RES1   0.0000
  6471 O156    54.9044   1.4000   7.5174   O3        1 RES1   0.0000
  6472 O157    52.1044  10.3174  -1.4000   O3        1 RES1   0.0000
  6473 O158    45.9870  -1.4000  16.4348   O3        1 RES1   0.0000
  6474 O158    45.9870  16.4348  -1.4000   O3        1 RES1   0.0000
  6475 O160    52.1044  -1.4000  10.3174   O3        1 RES1   0.0000
  6476 Zr3     42.1285   9.1159  26.5403   Zr        1 RES1   0.0000
  6477 Zr7     44.3751   6.4589  26.9507   Zr        1 RES1   0.0000
  6478 Zr8     44.3751   2.4585  35.4711   Zr        1 RES1   0.0000
  6479 Zr10    53.3059   0.2119  24.2937   Zr        1 RES1   0.0000
  6480 Zr11    44.7855   8.7055  24.2937   Zr        1 RES1   0.0000
  6481 Zr13    51.0459   8.7189  35.4577   Zr        1 RES1   0.0000
  6482 Zr14    47.0455   0.1985  35.4577   Zr        1 RES1   0.0000
  6483 Zr15    47.0455   8.7189  26.9641   Zr        1 RES1   0.0000
  6484 Zr16    51.0459   0.1985  26.9641   Zr        1 RES1   0.0000
  6485 Zr17    53.2925  15.3763  26.5537   Zr        1 RES1   0.0000
  6486 Zr19    44.7989  11.3759  26.5537   Zr        1 RES1   0.0000
  6487 Zr21    44.3885  17.6229  33.2111   Zr        1 RES1   0.0000
  6488 Zr23    44.3885   9.1293  29.2107   Zr        1 RES1   0.0000
  6489 O1      39.3971   7.2855  17.9775   Oco2      1 RES1   0.0000
  6490 O2      40.8595   1.6319  17.9775   Oco2      1 RES1   0.0000
  6491 O3      40.8595   7.2855  26.6095   Oco2      1 RES1   0.0000
  6492 O4      39.3971   1.6319  26.6095   Oco2      1 RES1   0.0000
  6493 O5      35.8123   3.7275  25.1203   Oco2      1 RES1   0.0000
  6494 O7      44.4443   5.1899  25.1203   Oco2      1 RES1   0.0000
  6495 O9      42.9551   0.1427  21.5623   Oco2      1 RES1   0.0000
  6496 O11     42.9551   8.7747  23.0247   Oco2      1 RES1   0.0000
  6497 O13     49.7769  10.5493  35.5269   Oco2      1 RES1   0.0000
  6498 O14     48.3145  16.2029  35.5269   Oco2      1 RES1   0.0000
  6499 O15     48.3145  10.5493  26.8949   Oco2      1 RES1   0.0000
  6500 O16     49.7769  16.2029  26.8949   Oco2      1 RES1   0.0000
  6501 O17     53.3617  14.1073  28.3841   Oco2      1 RES1   0.0000
  6502 O18     53.3617  12.6449  34.0377   Oco2      1 RES1   0.0000
  6503 O19     44.7297  12.6449  28.3841   Oco2      1 RES1   0.0000
  6504 O20     44.7297  14.1073  34.0377   Oco2      1 RES1   0.0000
  6505 O21     46.2189  17.6921  31.9421   Oco2      1 RES1   0.0000
  6506 O22     51.8725  17.6921  30.4797   Oco2      1 RES1   0.0000
  6507 O23     46.2189   9.0601  30.4797   Oco2      1 RES1   0.0000
  6508 O24     51.8725   9.0601  31.9421   Oco2      1 RES1   0.0000
  6509 O25     39.0653  11.1396  18.2735   Oco2      1 RES1   0.0000
  6510 O26     41.1913  15.6126  18.2735   Oco2      1 RES1   0.0000
  6511 O27     41.1913  11.1396  26.3135   Oco2      1 RES1   0.0000
  6512 O28     39.0653  15.6126  26.3135   Oco2      1 RES1   0.0000
  6513 O29     36.1083   3.3957  28.9744   Oco2      1 RES1   0.0000
  6514 O30     36.1083   5.5217  33.4474   Oco2      1 RES1   0.0000
  6515 O31     44.1483   5.5217  28.9744   Oco2      1 RES1   0.0000
  6516 O32     44.1483   3.3957  33.4474   Oco2      1 RES1   0.0000
  6517 O33     46.8092   0.4387  21.2305   Oco2      1 RES1   0.0000
  6518 O34     51.2822   0.4387  23.3565   Oco2      1 RES1   0.0000
  6519 O35     46.8092   8.4787  23.3565   Oco2      1 RES1   0.0000
  6520 O36     51.2822   8.4787  21.2305   Oco2      1 RES1   0.0000
  6521 O37     50.1087   6.6952  35.2309   Oco2      1 RES1   0.0000
  6522 O38     47.9827   2.2222  35.2309   Oco2      1 RES1   0.0000
  6523 O39     47.9827   6.6952  27.1909   Oco2      1 RES1   0.0000
  6524 O40     50.1087   2.2222  27.1909   Oco2      1 RES1   0.0000
  6525 O41     53.0657  14.4391  24.5300   Oco2      1 RES1   0.0000
  6526 O42     53.0657  12.3131  20.0570   Oco2      1 RES1   0.0000
  6527 O43     45.0257  12.3131  24.5300   Oco2      1 RES1   0.0000
  6528 O44     45.0257  14.4391  20.0570   Oco2      1 RES1   0.0000
  6529 O45     42.3648  17.3961  32.2739   Oco2      1 RES1   0.0000
  6530 O46     37.8918  17.3961  30.1479   Oco2      1 RES1   0.0000
  6531 O47     42.3648   9.3561  30.1479   Oco2      1 RES1   0.0000
  6532 O48     37.8918   9.3561  32.2739   Oco2      1 RES1   0.0000
  6533 O49     39.0511   9.0476  20.0873   Oco2      1 RES1   0.0000
  6534 O50     41.2055  -0.1302  20.0873   Oco2      1 RES1   0.0000
  6535 O51     41.2055   9.0476  24.4997   Oco2      1 RES1   0.0000
  6536 O52     39.0511  -0.1302  24.4997   Oco2      1 RES1   0.0000
  6537 O53     37.9221   3.3815  26.8824   Oco2      1 RES1   0.0000
  6538 O55     42.3345   5.5359  26.8824   Oco2      1 RES1   0.0000
  6539 O57     44.7172   2.2525  21.2163   Oco2      1 RES1   0.0000
  6540 O59     44.7172   6.6649  23.3707   Oco2      1 RES1   0.0000
  6541 O61     50.1229   8.7872  33.4171   Oco2      1 RES1   0.0000
  6542 O62     47.9685  17.9650  33.4171   Oco2      1 RES1   0.0000
  6543 O63     47.9685   8.7872  29.0047   Oco2      1 RES1   0.0000
  6544 O64     50.1229  17.9650  29.0047   Oco2      1 RES1   0.0000
  6545 O65     51.2519  14.4533  26.6220   Oco2      1 RES1   0.0000
  6546 O66     51.2519  12.2989  35.7998   Oco2      1 RES1   0.0000
  6547 O67     46.8395  12.2989  26.6220   Oco2      1 RES1   0.0000
  6548 O68     46.8395  14.4533  35.7998   Oco2      1 RES1   0.0000
  6549 O69     44.4568  15.5823  32.2881   Oco2      1 RES1   0.0000
  6550 O70     53.6346  15.5823  30.1337   Oco2      1 RES1   0.0000
  6551 O71     44.4568  11.1699  30.1337   Oco2      1 RES1   0.0000
  6552 O72     53.6346  11.1699  32.2881   Oco2      1 RES1   0.0000
  6553 O73     39.3935   9.3437  34.0538   Oco2      1 RES1   0.0000
  6554 O74     40.8631  17.4085  34.0538   Oco2      1 RES1   0.0000
  6555 O75     40.8631   9.3437  28.3680   Oco2      1 RES1   0.0000
  6556 O76     39.3935  17.4085  28.3680   Oco2      1 RES1   0.0000
  6557 O77     51.8886   3.7239  27.1785   Oco2      1 RES1   0.0000
  6558 O78     51.8886   5.1935  35.2433   Oco2      1 RES1   0.0000
  6559 O79     46.2028   5.1935  27.1785   Oco2      1 RES1   0.0000
  6560 O80     46.2028   3.7239  35.2433   Oco2      1 RES1   0.0000
  6561 O81     45.0133  16.2190  21.5587   Oco2      1 RES1   0.0000
  6562 O82     53.0781  16.2190  23.0283   Oco2      1 RES1   0.0000
  6563 O83     45.0133  10.5332  23.0283   Oco2      1 RES1   0.0000
  6564 O84     53.0781  10.5332  21.5587   Oco2      1 RES1   0.0000
  6565 O87     48.3109   8.4911  25.1364   Oco2      1 RES1   0.0000
  6566 O88     49.7805   0.4263  25.1364   Oco2      1 RES1   0.0000
  6567 O91     42.9712  12.6413  26.3259   Oco2      1 RES1   0.0000
  6568 O92     42.9712  14.1109  18.2611   Oco2      1 RES1   0.0000
  6569 O93     44.1607   1.6158  31.9457   Oco2      1 RES1   0.0000
  6570 O94     36.0959   1.6158  30.4761   Oco2      1 RES1   0.0000
  6571 O95     44.1607   7.3016  30.4761   Oco2      1 RES1   0.0000
  6572 O96     36.0959   7.3016  31.9457   Oco2      1 RES1   0.0000
  6573 C1      38.5303  12.2900  18.2628   C.2       1 RES1   0.0000
  6574 C2      41.7263  14.4622  18.2628   C.2       1 RES1   0.0000
  6575 C3      41.7263  12.2900  26.3242   C.2       1 RES1   0.0000
  6576 C4      38.5303  14.4622  26.3242   C.2       1 RES1   0.0000
  6577 C5      36.0976   2.8607  30.1248   C.2       1 RES1   0.0000
  6578 C6      36.0976   6.0567  32.2970   C.2       1 RES1   0.0000
  6579 C7      44.1590   6.0567  30.1248   C.2       1 RES1   0.0000
  6580 C8      44.1590   2.8607  32.2970   C.2       1 RES1   0.0000
  6581 C9      47.9596   0.4280  20.6955   C.2       1 RES1   0.0000
  6582 C10     50.1318   0.4280  23.8915   C.2       1 RES1   0.0000
  6583 C11     47.9596   8.4894  23.8915   C.2       1 RES1   0.0000
  6584 C12     50.1318   8.4894  20.6955   C.2       1 RES1   0.0000
  6585 C13     50.6437   5.5448  35.2416   C.2       1 RES1   0.0000
  6586 C14     47.4477   3.3726  35.2416   C.2       1 RES1   0.0000
  6587 C15     47.4477   5.5448  27.1802   C.2       1 RES1   0.0000
  6588 C16     50.6437   3.3726  27.1802   C.2       1 RES1   0.0000
  6589 C17     53.0764  14.9741  23.3796   C.2       1 RES1   0.0000
  6590 C18     53.0764  11.7781  21.2074   C.2       1 RES1   0.0000
  6591 C19     45.0150  11.7781  23.3796   C.2       1 RES1   0.0000
  6592 C20     45.0150  14.9741  21.2074   C.2       1 RES1   0.0000
  6593 C21     41.2144  17.4068  32.8089   C.2       1 RES1   0.0000
  6594 C22     39.0422  17.4068  29.6129   C.2       1 RES1   0.0000
  6595 C23     41.2144   9.3454  29.6129   C.2       1 RES1   0.0000
  6596 C24     39.0422   9.3454  32.8089   C.2       1 RES1   0.0000
  6597 C25     39.4898  13.4742  18.2682   C.2       1 RES1   0.0000
  6598 C26     40.7668  13.2780  18.2682   C.2       1 RES1   0.0000
  6599 C27     40.7668  13.4742  26.3188   C.2       1 RES1   0.0000
  6600 C28     39.4898  13.2780  26.3188   C.2       1 RES1   0.0000
  6601 C29     36.1030   3.8202  31.3090   C.2       1 RES1   0.0000
  6602 C30     36.1030   5.0972  31.1128   C.2       1 RES1   0.0000
  6603 C31     44.1536   5.0972  31.3090   C.2       1 RES1   0.0000
  6604 C32     44.1536   3.8202  31.1128   C.2       1 RES1   0.0000
  6605 C33     49.1438   0.4334  21.6550   C.2       1 RES1   0.0000
  6606 C34     48.9476   0.4334  22.9320   C.2       1 RES1   0.0000
  6607 C35     49.1438   8.4840  22.9320   C.2       1 RES1   0.0000
  6608 C36     48.9476   8.4840  21.6550   C.2       1 RES1   0.0000
  6609 C37     49.6842   4.3606  35.2362   C.2       1 RES1   0.0000
  6610 C38     48.4072   4.5568  35.2362   C.2       1 RES1   0.0000
  6611 C39     48.4072   4.3606  27.1856   C.2       1 RES1   0.0000
  6612 C40     49.6842   4.5568  27.1856   C.2       1 RES1   0.0000
  6613 C41     53.0710  14.0146  22.1954   C.2       1 RES1   0.0000
  6614 C42     53.0710  12.7376  22.3916   C.2       1 RES1   0.0000
  6615 C43     45.0204  12.7376  22.1954   C.2       1 RES1   0.0000
  6616 C44     45.0204  14.0146  22.3916   C.2       1 RES1   0.0000
  6617 C45     40.0302  17.4014  31.8494   C.2       1 RES1   0.0000
  6618 C46     40.2264  17.4014  30.5724   C.2       1 RES1   0.0000
  6619 C47     40.0302   9.3508  30.5724   C.2       1 RES1   0.0000
  6620 C48     40.2264   9.3508  31.8494   C.2       1 RES1   0.0000
  6621 H1      39.1563  14.3427  18.2700   H         1 RES1   0.0000
  6622 H2      41.1003  12.4095  18.2700   H         1 RES1   0.0000
  6623 H3      41.1003  14.3427  26.3170   H         1 RES1   0.0000
  6624 H4      39.1563  12.4095  26.3170   H         1 RES1   0.0000
  6625 H5      36.1048   3.4867  32.1775   H         1 RES1   0.0000
  6626 H6      36.1048   5.4307  30.2443   H         1 RES1   0.0000
  6627 H7      44.1518   5.4307  32.1775   H         1 RES1   0.0000
  6628 H8      44.1518   3.4867  30.2443   H         1 RES1   0.0000
  6629 H9      50.0123   0.4352  21.3215   H         1 RES1   0.0000
  6630 H10     48.0791   0.4352  23.2655   H         1 RES1   0.0000
  6631 H11     50.0123   8.4822  23.2655   H         1 RES1   0.0000
  6632 H12     48.0791   8.4822  21.3215   H         1 RES1   0.0000
  6633 H13     50.0177   3.4921  35.2344   H         1 RES1   0.0000
  6634 H14     48.0737   5.4253  35.2344   H         1 RES1   0.0000
  6635 H15     48.0737   3.4921  27.1874   H         1 RES1   0.0000
  6636 H16     50.0177   5.4253  27.1874   H         1 RES1   0.0000
  6637 H17     53.0692  14.3481  21.3269   H         1 RES1   0.0000
  6638 H18     53.0692  12.4041  23.2601   H         1 RES1   0.0000
  6639 H19     45.0222  12.4041  21.3269   H         1 RES1   0.0000
  6640 H20     45.0222  14.3481  23.2601   H         1 RES1   0.0000
  6641 H21     39.1617  17.3996  32.1829   H         1 RES1   0.0000
  6642 H22     41.0949  17.3996  30.2389   H         1 RES1   0.0000
  6643 H23     39.1617   9.3526  30.2389   H         1 RES1   0.0000
  6644 H24     41.0949   9.3526  32.1829   H         1 RES1   0.0000
  6645 C49     39.0689   6.0603  17.8348   C.2       1 RES1   0.0000
  6646 C50     41.1877   2.8571  17.8348   C.2       1 RES1   0.0000
  6647 C51     41.1877   6.0603  26.7522   C.2       1 RES1   0.0000
  6648 C52     39.0689   2.8571  26.7522   C.2       1 RES1   0.0000
  6649 C53     35.6696   3.3993  23.8951   C.2       1 RES1   0.0000
  6650 C54     35.6696   5.5181  20.6919   C.2       1 RES1   0.0000
  6651 C55     44.5870   5.5181  23.8951   C.2       1 RES1   0.0000
  6652 C56     44.5870   3.3993  20.6919   C.2       1 RES1   0.0000
  6653 C57     41.7299   0.0000  21.2341   C.2       1 RES1   0.0000
  6654 C58     38.5267   0.0000  23.3529   C.2       1 RES1   0.0000
  6655 C59     41.7299   8.9174  23.3529   C.2       1 RES1   0.0000
  6656 C60     38.5267   8.9174  21.2341   C.2       1 RES1   0.0000
  6657 C61     50.1051  11.7745  35.6696   C.2       1 RES1   0.0000
  6658 C62     47.9863  14.9777  35.6696   C.2       1 RES1   0.0000
  6659 C63     47.9863  11.7745  26.7522   C.2       1 RES1   0.0000
  6660 C64     50.1051  14.9777  26.7522   C.2       1 RES1   0.0000
  6661 C65     53.5044  14.4355  29.6093   C.2       1 RES1   0.0000
  6662 C66     53.5044  12.3167  32.8125   C.2       1 RES1   0.0000
  6663 C67     44.5870  12.3167  29.6093   C.2       1 RES1   0.0000
  6664 C68     44.5870  14.4355  32.8125   C.2       1 RES1   0.0000
  6665 C69     47.4441  17.8348  32.2703   C.2       1 RES1   0.0000
  6666 C70     50.6473  17.8348  30.1515   C.2       1 RES1   0.0000
  6667 C71     47.4441   8.9174  30.1515   C.2       1 RES1   0.0000
  6668 C72     50.6473   8.9174  32.2703   C.2       1 RES1   0.0000
  6669 C73     40.2478   5.1097  17.8366   C.2       1 RES1   0.0000
  6670 C74     40.0088   3.8077  17.8366   C.2       1 RES1   0.0000
  6671 C75     40.0088   5.1097  26.7504   C.2       1 RES1   0.0000
  6672 C76     40.2478   3.8077  26.7504   C.2       1 RES1   0.0000
  6673 C77     35.6714   4.5782  22.9445   C.2       1 RES1   0.0000
  6674 C78     35.6714   4.3392  21.6425   C.2       1 RES1   0.0000
  6675 C79     44.5852   4.3392  22.9445   C.2       1 RES1   0.0000
  6676 C80     44.5852   4.5782  21.6425   C.2       1 RES1   0.0000
  6677 C81     40.7793   0.0018  22.4130   C.2       1 RES1   0.0000
  6678 C82     39.4773   0.0018  22.1740   C.2       1 RES1   0.0000
  6679 C83     40.7793   8.9156  22.1740   C.2       1 RES1   0.0000
  6680 C84     39.4773   8.9156  22.4130   C.2       1 RES1   0.0000
  6681 C85     48.9262  12.7251  35.6678   C.2       1 RES1   0.0000
  6682 C86     49.1652  14.0271  35.6678   C.2       1 RES1   0.0000
  6683 C87     49.1652  12.7251  26.7540   C.2       1 RES1   0.0000
  6684 C88     48.9262  14.0271  26.7540   C.2       1 RES1   0.0000
  6685 C89     53.5026  13.2566  30.5599   C.2       1 RES1   0.0000
  6686 C90     53.5026  13.4956  31.8619   C.2       1 RES1   0.0000
  6687 C91     44.5888  13.4956  30.5599   C.2       1 RES1   0.0000
  6688 C92     44.5888  13.2566  31.8619   C.2       1 RES1   0.0000
  6689 C93     48.3947  17.8330  31.0914   C.2       1 RES1   0.0000
  6690 C94     49.6967  17.8330  31.3304   C.2       1 RES1   0.0000
  6691 C95     48.3947   8.9192  31.3304   C.2       1 RES1   0.0000
  6692 C96     49.6967   8.9192  31.0914   C.2       1 RES1   0.0000
  6693 H25     41.1199   5.4325  17.8366   H         1 RES1   0.0000
  6694 H26     39.1367   3.4849  17.8366   H         1 RES1   0.0000
  6695 H27     39.1367   5.4325  26.7504   H         1 RES1   0.0000
  6696 H28     41.1199   3.4849  26.7504   H         1 RES1   0.0000
  6697 H29     35.6714   5.4503  23.2673   H         1 RES1   0.0000
  6698 H30     35.6714   3.4671  21.3197   H         1 RES1   0.0000
  6699 H31     44.5852   3.4671  23.2673   H         1 RES1   0.0000
  6700 H32     44.5852   5.4503  21.3197   H         1 RES1   0.0000
  6701 H33     41.1021   0.0018  23.2851   H         1 RES1   0.0000
  6702 H34     39.1545   0.0018  21.3019   H         1 RES1   0.0000
  6703 H35     41.1021   8.9156  21.3019   H         1 RES1   0.0000
  6704 H36     39.1545   8.9156  23.2851   H         1 RES1   0.0000
  6705 H37     48.0541  12.4023  35.6678   H         1 RES1   0.0000
  6706 H38     50.0373  14.3499  35.6678   H         1 RES1   0.0000
  6707 H39     50.0373  12.4023  26.7540   H         1 RES1   0.0000
  6708 H40     48.0541  14.3499  26.7540   H         1 RES1   0.0000
  6709 H41     53.5026  12.3845  30.2371   H         1 RES1   0.0000
  6710 H42     53.5026  14.3677  32.1847   H         1 RES1   0.0000
  6711 H43     44.5888  14.3677  30.2371   H         1 RES1   0.0000
  6712 H44     44.5888  12.3845  32.1847   H         1 RES1   0.0000
  6713 H45     48.0719  17.8330  30.2193   H         1 RES1   0.0000
  6714 H46     50.0195  17.8330  32.2025   H         1 RES1   0.0000
  6715 H47     48.0719   8.9192  32.2025   H         1 RES1   0.0000
  6716 H48     50.0195   8.9192  30.2193   H         1 RES1   0.0000
  6717 O98     43.2226  16.1993  34.5157   O3        1 RES1   0.0000
  6718 O99     43.2226  10.5529  27.9061   O3        1 RES1   0.0000
  6719 O101    52.3505   1.3644  28.3877   O3        1 RES1   0.0000
  6720 O102    52.3505   7.5530  34.0341   O3        1 RES1   0.0000
  6721 O103    45.7409   7.5530  28.3877   O3        1 RES1   0.0000
  6722 O104    45.7409   1.3644  34.0341   O3        1 RES1   0.0000
  6723 O105    46.2225  16.6809  19.1992   O3        1 RES1   0.0000
  6724 O106    51.8689  16.6809  25.3878   O3        1 RES1   0.0000
  6725 O107    46.2225  10.0713  25.3878   O3        1 RES1   0.0000
  6726 O111    45.9514   7.2819  25.5983   O3        1 RES1   0.0000
  6727 O112    52.1400   1.6355  25.5983   O3        1 RES1   0.0000
  6728 O115    43.4331  10.2818  25.1167   O3        1 RES1   0.0000
  6729 O116    43.4331  16.4704  19.4703   O3        1 RES1   0.0000
  6730 O117    42.9515   1.1539  34.3052   O3        1 RES1   0.0000
  6731 O118    37.3051   1.1539  28.1166   O3        1 RES1   0.0000
  6732 O119    42.9515   7.7635  28.1166   O3        1 RES1   0.0000
  6733 O155    43.1870   7.5174  25.3522   O3        1 RES1   0.0000
  6734 O157    52.1044  10.3174  34.2696   O3        1 RES1   0.0000
  6735 O158    45.9870  16.4348  34.2696   O3        1 RES1   0.0000
  6736 O159    45.9870  10.3174  28.1522   O3        1 RES1   0.0000
  6737 O160    52.1044  16.4348  28.1522   O3        1 RES1   0.0000
  6738 Zr1     55.9629   9.1159  18.0467   Zr        1 RES1   0.0000
  6739 Zr2     42.1285  -0.1985  35.8815   Zr        1 RES1   0.0000
  6740 Zr2     42.1285  17.6363  35.8815   Zr        1 RES1   0.0000
  6741 Zr4     55.9629  -0.1985  26.5403   Zr        1 RES1   0.0000
  6742 Zr4     55.9629  17.6363  26.5403   Zr        1 RES1   0.0000
  6743 Zr5     53.7163   2.4585  26.9507   Zr        1 RES1   0.0000
  6744 Zr6     53.7163   6.4589  35.4711   Zr        1 RES1   0.0000
  6745 Zr8     44.3751  20.2933  35.4711   Zr        1 RES1   0.0000
  6746 Zr9     44.7855   0.2119  38.1281   Zr        1 RES1   0.0000
  6747 Zr9     44.7855  18.0467  20.2933   Zr        1 RES1   0.0000
  6748 Zr10    53.3059  18.0467  24.2937   Zr        1 RES1   0.0000
  6749 Zr12    53.3059   8.7055  38.1281   Zr        1 RES1   0.0000
  6750 Zr14    47.0455  18.0333  35.4577   Zr        1 RES1   0.0000
  6751 Zr16    51.0459  18.0333  26.9641   Zr        1 RES1   0.0000
  6752 Zr17    53.2925  -2.4585  26.5537   Zr        1 RES1   0.0000
  6753 Zr18    53.2925  11.3759  35.8681   Zr        1 RES1   0.0000
  6754 Zr20    44.7989  -2.4585  35.8681   Zr        1 RES1   0.0000
  6755 Zr20    44.7989  15.3763  35.8681   Zr        1 RES1   0.0000
  6756 Zr21    44.3885  -0.2119  33.2111   Zr        1 RES1   0.0000
  6757 Zr22    53.7029  -0.2119  29.2107   Zr        1 RES1   0.0000
  6758 Zr22    53.7029  17.6229  29.2107   Zr        1 RES1   0.0000
  6759 Zr24    53.7029   9.1293  33.2111   Zr        1 RES1   0.0000
  6760 O2      40.8595  19.4667  17.9775   Oco2      1 RES1   0.0000
  6761 O4      39.3971  19.4667  26.6095   Oco2      1 RES1   0.0000
  6762 O6      35.8123   5.1899  37.3015   Oco2      1 RES1   0.0000
  6763 O8      44.4443   3.7275  37.3015   Oco2      1 RES1   0.0000
  6764 O10     55.1363   0.1427  23.0247   O.2       1 RES1   0.0000
  6765 O12     55.1363   8.7747  21.5623   O.2       1 RES1   0.0000
  6766 O14     48.3145  -1.6319  35.5269   O.2       1 RES1   0.0000
  6767 O16     49.7769  -1.6319  26.8949   O.2       1 RES1   0.0000
  6768 O50     41.2055  17.7046  20.0873   Oco2      1 RES1   0.0000
  6769 O52     39.0511  17.7046  24.4997   Oco2      1 RES1   0.0000
  6770 O54     37.9221   5.5359  35.5394   Oco2      1 RES1   0.0000
  6771 O56     42.3345   3.3815  35.5394   Oco2      1 RES1   0.0000
  6772 O58     53.3742   2.2525  23.3707   O.2       1 RES1   0.0000
  6773 O60     53.3742   6.6649  21.2163   O.2       1 RES1   0.0000
  6774 O62     47.9685   0.1302  33.4171   O.2       1 RES1   0.0000
  6775 O64     50.1229   0.1302  29.0047   O.2       1 RES1   0.0000
  6776 O81     45.0133  -1.6158  21.5587   O.2       1 RES1   0.0000
  6777 O82     53.0781  -1.6158  23.0283   O.2       1 RES1   0.0000
  6778 O85     49.7805   8.4911  37.2854   Oco2      1 RES1   0.0000
  6779 O86     48.3109   0.4263  37.2854   Oco2      1 RES1   0.0000
  6780 O89     55.1202  14.1109  26.3259   O.2       1 RES1   0.0000
  6781 O90     55.1202  12.6413  18.2611   O.2       1 RES1   0.0000
  6782 O93     44.1607  19.4506  31.9457   Oco2      1 RES1   0.0000
  6783 O94     36.0959  19.4506  30.4761   Oco2      1 RES1   0.0000
  6784 O97     54.8688  10.5529  16.6809   O3        1 RES1   0.0000
  6785 O100    54.8688  16.1993  27.9061   O3        1 RES1   0.0000
  6786 O104    45.7409  19.1992  34.0341   O3        1 RES1   0.0000
  6787 O105    46.2225  -1.1539  37.0340   O3        1 RES1   0.0000
  6788 O106    51.8689  -1.1539  25.3878   O3        1 RES1   0.0000
  6789 O108    51.8689  10.0713  37.0340   O3        1 RES1   0.0000
  6790 O109    52.1400   7.2819  36.8235   O3        1 RES1   0.0000
  6791 O110    45.9514   1.6355  36.8235   O3        1 RES1   0.0000
  6792 O113    54.6583  -1.3644  25.1167   O3        1 RES1   0.0000
  6793 O113    54.6583  16.4704  25.1167   O3        1 RES1   0.0000
  6794 O114    54.6583  10.2818  19.4703   O3        1 RES1   0.0000
  6795 O116    43.4331  -1.3644  19.4703   O3        1 RES1   0.0000
  6796 O117    42.9515  18.9887  34.3052   O3        1 RES1   0.0000
  6797 O118    37.3051  18.9887  28.1166   O3        1 RES1   0.0000
  6798 O120    37.3051   7.7635  16.4704   O3        1 RES1   0.0000
  6799 O153    54.9044   7.5174  19.2348   O3        1 RES1   0.0000
  6800 O154    43.1870   1.4000  37.0696   O3        1 RES1   0.0000
  6801 O154    43.1870  19.2348  19.2348   O3        1 RES1   0.0000
  6802 O156    54.9044   1.4000  25.3522   O3        1 RES1   0.0000
  6803 O158    45.9870  -1.4000  34.2696   O3        1 RES1   0.0000
  6804 O160    52.1044  -1.4000  28.1522   O3        1 RES1   0.0000
  6805 Zr3     42.1285   9.1159  44.3751   Zr        1 RES1   0.0000
  6806 Zr7     44.3751   6.4589  44.7855   Zr        1 RES1   0.0000
  6807 Zr8     44.3751   2.4585  53.3059   Zr        1 RES1   0.0000
  6808 Zr10    53.3059   0.2119  42.1285   Zr        1 RES1   0.0000
  6809 Zr11    44.7855   8.7055  42.1285   Zr        1 RES1   0.0000
  6810 Zr13    51.0459   8.7189  53.2925   Zr        1 RES1   0.0000
  6811 Zr14    47.0455   0.1985  53.2925   Zr        1 RES1   0.0000
  6812 Zr15    47.0455   8.7189  44.7989   Zr        1 RES1   0.0000
  6813 Zr16    51.0459   0.1985  44.7989   Zr        1 RES1   0.0000
  6814 Zr17    53.2925  15.3763  44.3885   Zr        1 RES1   0.0000
  6815 Zr19    44.7989  11.3759  44.3885   Zr        1 RES1   0.0000
  6816 Zr21    44.3885  17.6229  51.0459   Zr        1 RES1   0.0000
  6817 Zr23    44.3885   9.1293  47.0455   Zr        1 RES1   0.0000
  6818 O1      39.3971   7.2855  35.8123   Oco2      1 RES1   0.0000
  6819 O2      40.8595   1.6319  35.8123   Oco2      1 RES1   0.0000
  6820 O3      40.8595   7.2855  44.4443   Oco2      1 RES1   0.0000
  6821 O4      39.3971   1.6319  44.4443   Oco2      1 RES1   0.0000
  6822 O5      35.8123   3.7275  42.9551   Oco2      1 RES1   0.0000
  6823 O7      44.4443   5.1899  42.9551   Oco2      1 RES1   0.0000
  6824 O9      42.9551   0.1427  39.3971   Oco2      1 RES1   0.0000
  6825 O11     42.9551   8.7747  40.8595   Oco2      1 RES1   0.0000
  6826 O13     49.7769  10.5493  53.3617   Oco2      1 RES1   0.0000
  6827 O14     48.3145  16.2029  53.3617   Oco2      1 RES1   0.0000
  6828 O15     48.3145  10.5493  44.7297   Oco2      1 RES1   0.0000
  6829 O16     49.7769  16.2029  44.7297   Oco2      1 RES1   0.0000
  6830 O17     53.3617  14.1073  46.2189   Oco2      1 RES1   0.0000
  6831 O18     53.3617  12.6449  51.8725   Oco2      1 RES1   0.0000
  6832 O19     44.7297  12.6449  46.2189   Oco2      1 RES1   0.0000
  6833 O20     44.7297  14.1073  51.8725   Oco2      1 RES1   0.0000
  6834 O21     46.2189  17.6921  49.7769   Oco2      1 RES1   0.0000
  6835 O22     51.8725  17.6921  48.3145   Oco2      1 RES1   0.0000
  6836 O23     46.2189   9.0601  48.3145   Oco2      1 RES1   0.0000
  6837 O24     51.8725   9.0601  49.7769   Oco2      1 RES1   0.0000
  6838 O25     39.0653  11.1396  36.1083   Oco2      1 RES1   0.0000
  6839 O26     41.1913  15.6126  36.1083   Oco2      1 RES1   0.0000
  6840 O27     41.1913  11.1396  44.1483   Oco2      1 RES1   0.0000
  6841 O28     39.0653  15.6126  44.1483   Oco2      1 RES1   0.0000
  6842 O29     36.1083   3.3957  46.8092   Oco2      1 RES1   0.0000
  6843 O30     36.1083   5.5217  51.2822   Oco2      1 RES1   0.0000
  6844 O31     44.1483   5.5217  46.8092   Oco2      1 RES1   0.0000
  6845 O32     44.1483   3.3957  51.2822   Oco2      1 RES1   0.0000
  6846 O33     46.8092   0.4387  39.0653   Oco2      1 RES1   0.0000
  6847 O34     51.2822   0.4387  41.1913   Oco2      1 RES1   0.0000
  6848 O35     46.8092   8.4787  41.1913   Oco2      1 RES1   0.0000
  6849 O36     51.2822   8.4787  39.0653   Oco2      1 RES1   0.0000
  6850 O37     50.1087   6.6952  53.0657   Oco2      1 RES1   0.0000
  6851 O38     47.9827   2.2222  53.0657   Oco2      1 RES1   0.0000
  6852 O39     47.9827   6.6952  45.0257   Oco2      1 RES1   0.0000
  6853 O40     50.1087   2.2222  45.0257   Oco2      1 RES1   0.0000
  6854 O41     53.0657  14.4391  42.3648   Oco2      1 RES1   0.0000
  6855 O42     53.0657  12.3131  37.8918   Oco2      1 RES1   0.0000
  6856 O43     45.0257  12.3131  42.3648   Oco2      1 RES1   0.0000
  6857 O44     45.0257  14.4391  37.8918   Oco2      1 RES1   0.0000
  6858 O45     42.3648  17.3961  50.1087   Oco2      1 RES1   0.0000
  6859 O46     37.8918  17.3961  47.9827   Oco2      1 RES1   0.0000
  6860 O47     42.3648   9.3561  47.9827   Oco2      1 RES1   0.0000
  6861 O48     37.8918   9.3561  50.1087   Oco2      1 RES1   0.0000
  6862 O49     39.0511   9.0476  37.9221   Oco2      1 RES1   0.0000
  6863 O50     41.2055  -0.1302  37.9221   Oco2      1 RES1   0.0000
  6864 O51     41.2055   9.0476  42.3345   Oco2      1 RES1   0.0000
  6865 O52     39.0511  -0.1302  42.3345   Oco2      1 RES1   0.0000
  6866 O53     37.9221   3.3815  44.7172   Oco2      1 RES1   0.0000
  6867 O55     42.3345   5.5359  44.7172   Oco2      1 RES1   0.0000
  6868 O57     44.7172   2.2525  39.0511   Oco2      1 RES1   0.0000
  6869 O59     44.7172   6.6649  41.2055   Oco2      1 RES1   0.0000
  6870 O61     50.1229   8.7872  51.2519   Oco2      1 RES1   0.0000
  6871 O62     47.9685  17.9650  51.2519   Oco2      1 RES1   0.0000
  6872 O63     47.9685   8.7872  46.8395   Oco2      1 RES1   0.0000
  6873 O64     50.1229  17.9650  46.8395   Oco2      1 RES1   0.0000
  6874 O65     51.2519  14.4533  44.4568   Oco2      1 RES1   0.0000
  6875 O66     51.2519  12.2989  53.6346   Oco2      1 RES1   0.0000
  6876 O67     46.8395  12.2989  44.4568   Oco2      1 RES1   0.0000
  6877 O68     46.8395  14.4533  53.6346   Oco2      1 RES1   0.0000
  6878 O69     44.4568  15.5823  50.1229   Oco2      1 RES1   0.0000
  6879 O70     53.6346  15.5823  47.9685   Oco2      1 RES1   0.0000
  6880 O71     44.4568  11.1699  47.9685   Oco2      1 RES1   0.0000
  6881 O72     53.6346  11.1699  50.1229   Oco2      1 RES1   0.0000
  6882 O73     39.3935   9.3437  51.8886   Oco2      1 RES1   0.0000
  6883 O74     40.8631  17.4085  51.8886   Oco2      1 RES1   0.0000
  6884 O75     40.8631   9.3437  46.2028   Oco2      1 RES1   0.0000
  6885 O76     39.3935  17.4085  46.2028   Oco2      1 RES1   0.0000
  6886 O77     51.8886   3.7239  45.0133   Oco2      1 RES1   0.0000
  6887 O78     51.8886   5.1935  53.0781   Oco2      1 RES1   0.0000
  6888 O79     46.2028   5.1935  45.0133   Oco2      1 RES1   0.0000
  6889 O80     46.2028   3.7239  53.0781   Oco2      1 RES1   0.0000
  6890 O81     45.0133  16.2190  39.3935   Oco2      1 RES1   0.0000
  6891 O82     53.0781  16.2190  40.8631   Oco2      1 RES1   0.0000
  6892 O83     45.0133  10.5332  40.8631   Oco2      1 RES1   0.0000
  6893 O84     53.0781  10.5332  39.3935   Oco2      1 RES1   0.0000
  6894 O87     48.3109   8.4911  42.9712   Oco2      1 RES1   0.0000
  6895 O88     49.7805   0.4263  42.9712   Oco2      1 RES1   0.0000
  6896 O91     42.9712  12.6413  44.1607   Oco2      1 RES1   0.0000
  6897 O92     42.9712  14.1109  36.0959   Oco2      1 RES1   0.0000
  6898 O93     44.1607   1.6158  49.7805   Oco2      1 RES1   0.0000
  6899 O94     36.0959   1.6158  48.3109   Oco2      1 RES1   0.0000
  6900 O95     44.1607   7.3016  48.3109   Oco2      1 RES1   0.0000
  6901 O96     36.0959   7.3016  49.7805   Oco2      1 RES1   0.0000
  6902 C1      38.5303  12.2900  36.0976   C.2       1 RES1   0.0000
  6903 C2      41.7263  14.4622  36.0976   C.2       1 RES1   0.0000
  6904 C3      41.7263  12.2900  44.1590   C.2       1 RES1   0.0000
  6905 C4      38.5303  14.4622  44.1590   C.2       1 RES1   0.0000
  6906 C5      36.0976   2.8607  47.9596   C.2       1 RES1   0.0000
  6907 C6      36.0976   6.0567  50.1318   C.2       1 RES1   0.0000
  6908 C7      44.1590   6.0567  47.9596   C.2       1 RES1   0.0000
  6909 C8      44.1590   2.8607  50.1318   C.2       1 RES1   0.0000
  6910 C9      47.9596   0.4280  38.5303   C.2       1 RES1   0.0000
  6911 C10     50.1318   0.4280  41.7263   C.2       1 RES1   0.0000
  6912 C11     47.9596   8.4894  41.7263   C.2       1 RES1   0.0000
  6913 C12     50.1318   8.4894  38.5303   C.2       1 RES1   0.0000
  6914 C13     50.6437   5.5448  53.0764   C.2       1 RES1   0.0000
  6915 C14     47.4477   3.3726  53.0764   C.2       1 RES1   0.0000
  6916 C15     47.4477   5.5448  45.0150   C.2       1 RES1   0.0000
  6917 C16     50.6437   3.3726  45.0150   C.2       1 RES1   0.0000
  6918 C17     53.0764  14.9741  41.2144   C.2       1 RES1   0.0000
  6919 C18     53.0764  11.7781  39.0422   C.2       1 RES1   0.0000
  6920 C19     45.0150  11.7781  41.2144   C.2       1 RES1   0.0000
  6921 C20     45.0150  14.9741  39.0422   C.2       1 RES1   0.0000
  6922 C21     41.2144  17.4068  50.6437   C.2       1 RES1   0.0000
  6923 C22     39.0422  17.4068  47.4477   C.2       1 RES1   0.0000
  6924 C23     41.2144   9.3454  47.4477   C.2       1 RES1   0.0000
  6925 C24     39.0422   9.3454  50.6437   C.2       1 RES1   0.0000
  6926 C25     39.4898  13.4742  36.1030   C.2       1 RES1   0.0000
  6927 C26     40.7668  13.2780  36.1030   C.2       1 RES1   0.0000
  6928 C27     40.7668  13.4742  44.1536   C.2       1 RES1   0.0000
  6929 C28     39.4898  13.2780  44.1536   C.2       1 RES1   0.0000
  6930 C29     36.1030   3.8202  49.1438   C.2       1 RES1   0.0000
  6931 C30     36.1030   5.0972  48.9476   C.2       1 RES1   0.0000
  6932 C31     44.1536   5.0972  49.1438   C.2       1 RES1   0.0000
  6933 C32     44.1536   3.8202  48.9476   C.2       1 RES1   0.0000
  6934 C33     49.1438   0.4334  39.4898   C.2       1 RES1   0.0000
  6935 C34     48.9476   0.4334  40.7668   C.2       1 RES1   0.0000
  6936 C35     49.1438   8.4840  40.7668   C.2       1 RES1   0.0000
  6937 C36     48.9476   8.4840  39.4898   C.2       1 RES1   0.0000
  6938 C37     49.6842   4.3606  53.0710   C.2       1 RES1   0.0000
  6939 C38     48.4072   4.5568  53.0710   C.2       1 RES1   0.0000
  6940 C39     48.4072   4.3606  45.0204   C.2       1 RES1   0.0000
  6941 C40     49.6842   4.5568  45.0204   C.2       1 RES1   0.0000
  6942 C41     53.0710  14.0146  40.0302   C.2       1 RES1   0.0000
  6943 C42     53.0710  12.7376  40.2264   C.2       1 RES1   0.0000
  6944 C43     45.0204  12.7376  40.0302   C.2       1 RES1   0.0000
  6945 C44     45.0204  14.0146  40.2264   C.2       1 RES1   0.0000
  6946 C45     40.0302  17.4014  49.6842   C.2       1 RES1   0.0000
  6947 C46     40.2264  17.4014  48.4072   C.2       1 RES1   0.0000
  6948 C47     40.0302   9.3508  48.4072   C.2       1 RES1   0.0000
  6949 C48     40.2264   9.3508  49.6842   C.2       1 RES1   0.0000
  6950 H1      39.1563  14.3427  36.1048   H         1 RES1   0.0000
  6951 H2      41.1003  12.4095  36.1048   H         1 RES1   0.0000
  6952 H3      41.1003  14.3427  44.1518   H         1 RES1   0.0000
  6953 H4      39.1563  12.4095  44.1518   H         1 RES1   0.0000
  6954 H5      36.1048   3.4867  50.0123   H         1 RES1   0.0000
  6955 H6      36.1048   5.4307  48.0791   H         1 RES1   0.0000
  6956 H7      44.1518   5.4307  50.0123   H         1 RES1   0.0000
  6957 H8      44.1518   3.4867  48.0791   H         1 RES1   0.0000
  6958 H9      50.0123   0.4352  39.1563   H         1 RES1   0.0000
  6959 H10     48.0791   0.4352  41.1003   H         1 RES1   0.0000
  6960 H11     50.0123   8.4822  41.1003   H         1 RES1   0.0000
  6961 H12     48.0791   8.4822  39.1563   H         1 RES1   0.0000
  6962 H13     50.0177   3.4921  53.0692   H         1 RES1   0.0000
  6963 H14     48.0737   5.4253  53.0692   H         1 RES1   0.0000
  6964 H15     48.0737   3.4921  45.0222   H         1 RES1   0.0000
  6965 H16     50.0177   5.4253  45.0222   H         1 RES1   0.0000
  6966 H17     53.0692  14.3481  39.1617   H         1 RES1   0.0000
  6967 H18     53.0692  12.4041  41.0949   H         1 RES1   0.0000
  6968 H19     45.0222  12.4041  39.1617   H         1 RES1   0.0000
  6969 H20     45.0222  14.3481  41.0949   H         1 RES1   0.0000
  6970 H21     39.1617  17.3996  50.0177   H         1 RES1   0.0000
  6971 H22     41.0949  17.3996  48.0737   H         1 RES1   0.0000
  6972 H23     39.1617   9.3526  48.0737   H         1 RES1   0.0000
  6973 H24     41.0949   9.3526  50.0177   H         1 RES1   0.0000
  6974 C49     39.0689   6.0603  35.6696   C.2       1 RES1   0.0000
  6975 C50     41.1877   2.8571  35.6696   C.2       1 RES1   0.0000
  6976 C51     41.1877   6.0603  44.5870   C.2       1 RES1   0.0000
  6977 C52     39.0689   2.8571  44.5870   C.2       1 RES1   0.0000
  6978 C53     35.6696   3.3993  41.7299   C.2       1 RES1   0.0000
  6979 C54     35.6696   5.5181  38.5267   C.2       1 RES1   0.0000
  6980 C55     44.5870   5.5181  41.7299   C.2       1 RES1   0.0000
  6981 C56     44.5870   3.3993  38.5267   C.2       1 RES1   0.0000
  6982 C57     41.7299   0.0000  39.0689   C.2       1 RES1   0.0000
  6983 C58     38.5267   0.0000  41.1877   C.2       1 RES1   0.0000
  6984 C59     41.7299   8.9174  41.1877   C.2       1 RES1   0.0000
  6985 C60     38.5267   8.9174  39.0689   C.2       1 RES1   0.0000
  6986 C61     50.1051  11.7745  53.5044   C.2       1 RES1   0.0000
  6987 C62     47.9863  14.9777  53.5044   C.2       1 RES1   0.0000
  6988 C63     47.9863  11.7745  44.5870   C.2       1 RES1   0.0000
  6989 C64     50.1051  14.9777  44.5870   C.2       1 RES1   0.0000
  6990 C65     53.5044  14.4355  47.4441   C.2       1 RES1   0.0000
  6991 C66     53.5044  12.3167  50.6473   C.2       1 RES1   0.0000
  6992 C67     44.5870  12.3167  47.4441   C.2       1 RES1   0.0000
  6993 C68     44.5870  14.4355  50.6473   C.2       1 RES1   0.0000
  6994 C69     47.4441  17.8348  50.1051   C.2       1 RES1   0.0000
  6995 C70     50.6473  17.8348  47.9863   C.2       1 RES1   0.0000
  6996 C71     47.4441   8.9174  47.9863   C.2       1 RES1   0.0000
  6997 C72     50.6473   8.9174  50.1051   C.2       1 RES1   0.0000
  6998 C73     40.2478   5.1097  35.6714   C.2       1 RES1   0.0000
  6999 C74     40.0088   3.8077  35.6714   C.2       1 RES1   0.0000
  7000 C75     40.0088   5.1097  44.5852   C.2       1 RES1   0.0000
  7001 C76     40.2478   3.8077  44.5852   C.2       1 RES1   0.0000
  7002 C77     35.6714   4.5782  40.7793   C.2       1 RES1   0.0000
  7003 C78     35.6714   4.3392  39.4773   C.2       1 RES1   0.0000
  7004 C79     44.5852   4.3392  40.7793   C.2       1 RES1   0.0000
  7005 C80     44.5852   4.5782  39.4773   C.2       1 RES1   0.0000
  7006 C81     40.7793   0.0018  40.2478   C.2       1 RES1   0.0000
  7007 C82     39.4773   0.0018  40.0088   C.2       1 RES1   0.0000
  7008 C83     40.7793   8.9156  40.0088   C.2       1 RES1   0.0000
  7009 C84     39.4773   8.9156  40.2478   C.2       1 RES1   0.0000
  7010 C85     48.9262  12.7251  53.5026   C.2       1 RES1   0.0000
  7011 C86     49.1652  14.0271  53.5026   C.2       1 RES1   0.0000
  7012 C87     49.1652  12.7251  44.5888   C.2       1 RES1   0.0000
  7013 C88     48.9262  14.0271  44.5888   C.2       1 RES1   0.0000
  7014 C89     53.5026  13.2566  48.3947   C.2       1 RES1   0.0000
  7015 C90     53.5026  13.4956  49.6967   C.2       1 RES1   0.0000
  7016 C91     44.5888  13.4956  48.3947   C.2       1 RES1   0.0000
  7017 C92     44.5888  13.2566  49.6967   C.2       1 RES1   0.0000
  7018 C93     48.3947  17.8330  48.9262   C.2       1 RES1   0.0000
  7019 C94     49.6967  17.8330  49.1652   C.2       1 RES1   0.0000
  7020 C95     48.3947   8.9192  49.1652   C.2       1 RES1   0.0000
  7021 C96     49.6967   8.9192  48.9262   C.2       1 RES1   0.0000
  7022 H25     41.1199   5.4325  35.6714   H         1 RES1   0.0000
  7023 H26     39.1367   3.4849  35.6714   H         1 RES1   0.0000
  7024 H27     39.1367   5.4325  44.5852   H         1 RES1   0.0000
  7025 H28     41.1199   3.4849  44.5852   H         1 RES1   0.0000
  7026 H29     35.6714   5.4503  41.1021   H         1 RES1   0.0000
  7027 H30     35.6714   3.4671  39.1545   H         1 RES1   0.0000
  7028 H31     44.5852   3.4671  41.1021   H         1 RES1   0.0000
  7029 H32     44.5852   5.4503  39.1545   H         1 RES1   0.0000
  7030 H33     41.1021   0.0018  41.1199   H         1 RES1   0.0000
  7031 H34     39.1545   0.0018  39.1367   H         1 RES1   0.0000
  7032 H35     41.1021   8.9156  39.1367   H         1 RES1   0.0000
  7033 H36     39.1545   8.9156  41.1199   H         1 RES1   0.0000
  7034 H37     48.0541  12.4023  53.5026   H         1 RES1   0.0000
  7035 H38     50.0373  14.3499  53.5026   H         1 RES1   0.0000
  7036 H39     50.0373  12.4023  44.5888   H         1 RES1   0.0000
  7037 H40     48.0541  14.3499  44.5888   H         1 RES1   0.0000
  7038 H41     53.5026  12.3845  48.0719   H         1 RES1   0.0000
  7039 H42     53.5026  14.3677  50.0195   H         1 RES1   0.0000
  7040 H43     44.5888  14.3677  48.0719   H         1 RES1   0.0000
  7041 H44     44.5888  12.3845  50.0195   H         1 RES1   0.0000
  7042 H45     48.0719  17.8330  48.0541   H         1 RES1   0.0000
  7043 H46     50.0195  17.8330  50.0373   H         1 RES1   0.0000
  7044 H47     48.0719   8.9192  50.0373   H         1 RES1   0.0000
  7045 H48     50.0195   8.9192  48.0541   H         1 RES1   0.0000
  7046 O97     37.0340  10.5529  52.3505   O3        1 RES1   0.0000
  7047 O98     43.2226  16.1993  52.3505   O3        1 RES1   0.0000
  7048 O99     43.2226  10.5529  45.7409   O3        1 RES1   0.0000
  7049 O101    52.3505   1.3644  46.2225   O3        1 RES1   0.0000
  7050 O102    52.3505   7.5530  51.8689   O3        1 RES1   0.0000
  7051 O103    45.7409   7.5530  46.2225   O3        1 RES1   0.0000
  7052 O104    45.7409   1.3644  51.8689   O3        1 RES1   0.0000
  7053 O105    46.2225  16.6809  37.0340   O3        1 RES1   0.0000
  7054 O106    51.8689  16.6809  43.2226   O3        1 RES1   0.0000
  7055 O107    46.2225  10.0713  43.2226   O3        1 RES1   0.0000
  7056 O111    45.9514   7.2819  43.4331   O3        1 RES1   0.0000
  7057 O112    52.1400   1.6355  43.4331   O3        1 RES1   0.0000
  7058 O115    43.4331  10.2818  42.9515   O3        1 RES1   0.0000
  7059 O116    43.4331  16.4704  37.3051   O3        1 RES1   0.0000
  7060 O117    42.9515   1.1539  52.1400   O3        1 RES1   0.0000
  7061 O118    37.3051   1.1539  45.9514   O3        1 RES1   0.0000
  7062 O119    42.9515   7.7635  45.9514   O3        1 RES1   0.0000
  7063 O155    43.1870   7.5174  43.1870   O3        1 RES1   0.0000
  7064 O157    52.1044  10.3174  52.1044   O3        1 RES1   0.0000
  7065 O158    45.9870  16.4348  52.1044   O3        1 RES1   0.0000
  7066 O159    45.9870  10.3174  45.9870   O3        1 RES1   0.0000
  7067 O160    52.1044  16.4348  45.9870   O3        1 RES1   0.0000
  7068 Zr1     38.1281   9.1159  53.7163   Zr        1 RES1   0.0000
  7069 Zr1     55.9629   9.1159  35.8815   Zr        1 RES1   0.0000
  7070 Zr2     42.1285  -0.1985  53.7163   Zr        1 RES1   0.0000
  7071 Zr2     42.1285  17.6363  53.7163   Zr        1 RES1   0.0000
  7072 Zr4     55.9629  -0.1985  44.3751   Zr        1 RES1   0.0000
  7073 Zr4     55.9629  17.6363  44.3751   Zr        1 RES1   0.0000
  7074 Zr5     53.7163   2.4585  44.7855   Zr        1 RES1   0.0000
  7075 Zr6     53.7163   6.4589  53.3059   Zr        1 RES1   0.0000
  7076 Zr8     44.3751  20.2933  53.3059   Zr        1 RES1   0.0000
  7077 Zr9     44.7855   0.2119  55.9629   Zr        1 RES1   0.0000
  7078 Zr9     44.7855  18.0467  38.1281   Zr        1 RES1   0.0000
  7079 Zr10    53.3059  18.0467  42.1285   Zr        1 RES1   0.0000
  7080 Zr12    53.3059   8.7055  55.9629   Zr        1 RES1   0.0000
  7081 Zr14    47.0455  18.0333  53.2925   Zr        1 RES1   0.0000
  7082 Zr16    51.0459  18.0333  44.7989   Zr        1 RES1   0.0000
  7083 Zr17    53.2925  -2.4585  44.3885   Zr        1 RES1   0.0000
  7084 Zr18    53.2925  11.3759  53.7029   Zr        1 RES1   0.0000
  7085 Zr20    44.7989  -2.4585  53.7029   Zr        1 RES1   0.0000
  7086 Zr20    44.7989  15.3763  53.7029   Zr        1 RES1   0.0000
  7087 Zr21    44.3885  -0.2119  51.0459   Zr        1 RES1   0.0000
  7088 Zr22    53.7029  -0.2119  47.0455   Zr        1 RES1   0.0000
  7089 Zr22    53.7029  17.6229  47.0455   Zr        1 RES1   0.0000
  7090 Zr24    53.7029   9.1293  51.0459   Zr        1 RES1   0.0000
  7091 O2      40.8595  19.4667  35.8123   Oco2      1 RES1   0.0000
  7092 O4      39.3971  19.4667  44.4443   Oco2      1 RES1   0.0000
  7093 O6      35.8123   5.1899  55.1363   O.2       1 RES1   0.0000
  7094 O8      44.4443   3.7275  55.1363   O.2       1 RES1   0.0000
  7095 O10     55.1363   0.1427  40.8595   O.2       1 RES1   0.0000
  7096 O12     55.1363   8.7747  39.3971   O.2       1 RES1   0.0000
  7097 O14     48.3145  -1.6319  53.3617   O.2       1 RES1   0.0000
  7098 O16     49.7769  -1.6319  44.7297   O.2       1 RES1   0.0000
  7099 O50     41.2055  17.7046  37.9221   Oco2      1 RES1   0.0000
  7100 O52     39.0511  17.7046  42.3345   Oco2      1 RES1   0.0000
  7101 O54     37.9221   5.5359  53.3742   O.2       1 RES1   0.0000
  7102 O56     42.3345   3.3815  53.3742   O.2       1 RES1   0.0000
  7103 O58     53.3742   2.2525  41.2055   O.2       1 RES1   0.0000
  7104 O60     53.3742   6.6649  39.0511   O.2       1 RES1   0.0000
  7105 O62     47.9685   0.1302  51.2519   O.2       1 RES1   0.0000
  7106 O64     50.1229   0.1302  46.8395   O.2       1 RES1   0.0000
  7107 O81     45.0133  -1.6158  39.3935   O.2       1 RES1   0.0000
  7108 O82     53.0781  -1.6158  40.8631   O.2       1 RES1   0.0000
  7109 O85     49.7805   8.4911  55.1202   O.2       1 RES1   0.0000
  7110 O86     48.3109   0.4263  55.1202   O.2       1 RES1   0.0000
  7111 O89     55.1202  14.1109  44.1607   O.2       1 RES1   0.0000
  7112 O90     55.1202  12.6413  36.0959   O.2       1 RES1   0.0000
  7113 O93     44.1607  19.4506  49.7805   Oco2      1 RES1   0.0000
  7114 O94     36.0959  19.4506  48.3109   Oco2      1 RES1   0.0000
  7115 O97     54.8688  10.5529  34.5157   O3        1 RES1   0.0000
  7116 O100    54.8688  16.1993  45.7409   O3        1 RES1   0.0000
  7117 O104    45.7409  19.1992  51.8689   O3        1 RES1   0.0000
  7118 O105    46.2225  -1.1539  54.8688   O3        1 RES1   0.0000
  7119 O106    51.8689  -1.1539  43.2226   O3        1 RES1   0.0000
  7120 O108    51.8689  10.0713  54.8688   O3        1 RES1   0.0000
  7121 O109    52.1400   7.2819  54.6583   O3        1 RES1   0.0000
  7122 O110    45.9514   1.6355  54.6583   O3        1 RES1   0.0000
  7123 O113    54.6583  -1.3644  42.9515   O3        1 RES1   0.0000
  7124 O113    54.6583  16.4704  42.9515   O3        1 RES1   0.0000
  7125 O114    54.6583  10.2818  37.3051   O3        1 RES1   0.0000
  7126 O116    43.4331  -1.3644  37.3051   O3        1 RES1   0.0000
  7127 O117    42.9515  18.9887  52.1400   O3        1 RES1   0.0000
  7128 O118    37.3051  18.9887  45.9514   O3        1 RES1   0.0000
  7129 O120    37.3051   7.7635  34.3052   O3        1 RES1   0.0000
  7130 O153    37.0696   7.5174  54.9044   O3        1 RES1   0.0000
  7131 O153    54.9044   7.5174  37.0696   O3        1 RES1   0.0000
  7132 O154    43.1870   1.4000  54.9044   O3        1 RES1   0.0000
  7133 O154    43.1870  19.2348  37.0696   O3        1 RES1   0.0000
  7134 O156    54.9044   1.4000  43.1870   O3        1 RES1   0.0000
  7135 O158    45.9870  -1.4000  52.1044   O3        1 RES1   0.0000
  7136 O160    52.1044  -1.4000  45.9870   O3        1 RES1   0.0000
  7137 Zr2     42.1285  35.4711   0.2119   Zr        1 RES1   0.0000
  7138 Zr3     42.1285  26.9507   8.7055   Zr        1 RES1   0.0000
  7139 Zr7     44.3751  24.2937   9.1159   Zr        1 RES1   0.0000
  7140 Zr11    44.7855  26.5403   6.4589   Zr        1 RES1   0.0000
  7141 Zr12    53.3059  26.5403   2.4585   Zr        1 RES1   0.0000
  7142 Zr13    51.0459  26.5537  17.6229   Zr        1 RES1   0.0000
  7143 Zr15    47.0455  26.5537   9.1293   Zr        1 RES1   0.0000
  7144 Zr17    53.2925  33.2111   8.7189   Zr        1 RES1   0.0000
  7145 Zr18    53.2925  29.2107   0.1985   Zr        1 RES1   0.0000
  7146 Zr19    44.7989  29.2107   8.7189   Zr        1 RES1   0.0000
  7147 Zr20    44.7989  33.2111   0.1985   Zr        1 RES1   0.0000
  7148 Zr21    44.3885  35.4577  15.3763   Zr        1 RES1   0.0000
  7149 Zr23    44.3885  26.9641  11.3759   Zr        1 RES1   0.0000
  7150 O1      39.3971  25.1203   0.1427   Oco2      1 RES1   0.0000
  7151 O3      40.8595  25.1203   8.7747   Oco2      1 RES1   0.0000
  7152 O5      35.8123  21.5623   7.2855   Oco2      1 RES1   0.0000
  7153 O6      35.8123  23.0247   1.6319   Oco2      1 RES1   0.0000
  7154 O7      44.4443  23.0247   7.2855   Oco2      1 RES1   0.0000
  7155 O8      44.4443  21.5623   1.6319   Oco2      1 RES1   0.0000
  7156 O9      42.9551  17.9775   3.7275   Oco2      1 RES1   0.0000
  7157 O11     42.9551  26.6095   5.1899   Oco2      1 RES1   0.0000
  7158 O13     49.7769  28.3841  17.6921   Oco2      1 RES1   0.0000
  7159 O14     48.3145  34.0377  17.6921   Oco2      1 RES1   0.0000
  7160 O15     48.3145  28.3841   9.0601   Oco2      1 RES1   0.0000
  7161 O16     49.7769  34.0377   9.0601   Oco2      1 RES1   0.0000
  7162 O17     53.3617  31.9421  10.5493   Oco2      1 RES1   0.0000
  7163 O18     53.3617  30.4797  16.2029   Oco2      1 RES1   0.0000
  7164 O19     44.7297  30.4797  10.5493   Oco2      1 RES1   0.0000
  7165 O20     44.7297  31.9421  16.2029   Oco2      1 RES1   0.0000
  7166 O21     46.2189  35.5269  14.1073   Oco2      1 RES1   0.0000
  7167 O22     51.8725  35.5269  12.6449   Oco2      1 RES1   0.0000
  7168 O23     46.2189  26.8949  12.6449   Oco2      1 RES1   0.0000
  7169 O24     51.8725  26.8949  14.1073   Oco2      1 RES1   0.0000
  7170 O25     39.0653  28.9744   0.4387   Oco2      1 RES1   0.0000
  7171 O26     41.1913  33.4474   0.4387   Oco2      1 RES1   0.0000
  7172 O27     41.1913  28.9744   8.4787   Oco2      1 RES1   0.0000
  7173 O28     39.0653  33.4474   8.4787   Oco2      1 RES1   0.0000
  7174 O29     36.1083  21.2305  11.1396   Oco2      1 RES1   0.0000
  7175 O30     36.1083  23.3565  15.6126   Oco2      1 RES1   0.0000
  7176 O31     44.1483  23.3565  11.1396   Oco2      1 RES1   0.0000
  7177 O32     44.1483  21.2305  15.6126   Oco2      1 RES1   0.0000
  7178 O33     46.8092  18.2735   3.3957   Oco2      1 RES1   0.0000
  7179 O34     51.2822  18.2735   5.5217   Oco2      1 RES1   0.0000
  7180 O35     46.8092  26.3135   5.5217   Oco2      1 RES1   0.0000
  7181 O36     51.2822  26.3135   3.3957   Oco2      1 RES1   0.0000
  7182 O37     50.1087  24.5300  17.3961   Oco2      1 RES1   0.0000
  7183 O38     47.9827  20.0570  17.3961   Oco2      1 RES1   0.0000
  7184 O39     47.9827  24.5300   9.3561   Oco2      1 RES1   0.0000
  7185 O40     50.1087  20.0570   9.3561   Oco2      1 RES1   0.0000
  7186 O41     53.0657  32.2739   6.6952   Oco2      1 RES1   0.0000
  7187 O42     53.0657  30.1479   2.2222   Oco2      1 RES1   0.0000
  7188 O43     45.0257  30.1479   6.6952   Oco2      1 RES1   0.0000
  7189 O44     45.0257  32.2739   2.2222   Oco2      1 RES1   0.0000
  7190 O45     42.3648  35.2309  14.4391   Oco2      1 RES1   0.0000
  7191 O46     37.8918  35.2309  12.3131   Oco2      1 RES1   0.0000
  7192 O47     42.3648  27.1909  12.3131   Oco2      1 RES1   0.0000
  7193 O48     37.8918  27.1909  14.4391   Oco2      1 RES1   0.0000
  7194 O49     39.0511  26.8824   2.2525   Oco2      1 RES1   0.0000
  7195 O51     41.2055  26.8824   6.6649   Oco2      1 RES1   0.0000
  7196 O53     37.9221  21.2163   9.0476   Oco2      1 RES1   0.0000
  7197 O54     37.9221  23.3707  -0.1302   Oco2      1 RES1   0.0000
  7198 O55     42.3345  23.3707   9.0476   Oco2      1 RES1   0.0000
  7199 O56     42.3345  21.2163  -0.1302   Oco2      1 RES1   0.0000
  7200 O57     44.7172  20.0873   3.3815   Oco2      1 RES1   0.0000
  7201 O59     44.7172  24.4997   5.5359   Oco2      1 RES1   0.0000
  7202 O61     50.1229  26.6220  15.5823   Oco2      1 RES1   0.0000
  7203 O62     47.9685  35.7998  15.5823   Oco2      1 RES1   0.0000
  7204 O63     47.9685  26.6220  11.1699   Oco2      1 RES1   0.0000
  7205 O64     50.1229  35.7998  11.1699   Oco2      1 RES1   0.0000
  7206 O65     51.2519  32.2881   8.7872   Oco2      1 RES1   0.0000
  7207 O66     51.2519  30.1337  17.9650   Oco2      1 RES1   0.0000
  7208 O67     46.8395  30.1337   8.7872   Oco2      1 RES1   0.0000
  7209 O68     46.8395  32.2881  17.9650   Oco2      1 RES1   0.0000
  7210 O69     44.4568  33.4171  14.4533   Oco2      1 RES1   0.0000
  7211 O70     53.6346  33.4171  12.2989   Oco2      1 RES1   0.0000
  7212 O71     44.4568  29.0047  12.2989   Oco2      1 RES1   0.0000
  7213 O72     53.6346  29.0047  14.4533   Oco2      1 RES1   0.0000
  7214 O73     39.3935  27.1785  16.2190   Oco2      1 RES1   0.0000
  7215 O74     40.8631  35.2433  16.2190   Oco2      1 RES1   0.0000
  7216 O75     40.8631  27.1785  10.5332   Oco2      1 RES1   0.0000
  7217 O76     39.3935  35.2433  10.5332   Oco2      1 RES1   0.0000
  7218 O77     51.8886  21.5587   9.3437   Oco2      1 RES1   0.0000
  7219 O78     51.8886  23.0283  17.4085   Oco2      1 RES1   0.0000
  7220 O79     46.2028  23.0283   9.3437   Oco2      1 RES1   0.0000
  7221 O80     46.2028  21.5587  17.4085   Oco2      1 RES1   0.0000
  7222 O81     45.0133  34.0538   3.7239   Oco2      1 RES1   0.0000
  7223 O82     53.0781  34.0538   5.1935   Oco2      1 RES1   0.0000
  7224 O83     45.0133  28.3680   5.1935   Oco2      1 RES1   0.0000
  7225 O84     53.0781  28.3680   3.7239   Oco2      1 RES1   0.0000
  7226 O85     49.7805  26.3259   1.6158   Oco2      1 RES1   0.0000
  7227 O86     48.3109  18.2611   1.6158   Oco2      1 RES1   0.0000
  7228 O87     48.3109  26.3259   7.3016   Oco2      1 RES1   0.0000
  7229 O88     49.7805  18.2611   7.3016   Oco2      1 RES1   0.0000
  7230 O91     42.9712  30.4761   8.4911   Oco2      1 RES1   0.0000
  7231 O92     42.9712  31.9457   0.4263   Oco2      1 RES1   0.0000
  7232 O95     44.1607  25.1364  12.6413   Oco2      1 RES1   0.0000
  7233 O96     36.0959  25.1364  14.1109   Oco2      1 RES1   0.0000
  7234 C1      38.5303  30.1248   0.4280   C.2       1 RES1   0.0000
  7235 C2      41.7263  32.2970   0.4280   C.2       1 RES1   0.0000
  7236 C3      41.7263  30.1248   8.4894   C.2       1 RES1   0.0000
  7237 C4      38.5303  32.2970   8.4894   C.2       1 RES1   0.0000
  7238 C5      36.0976  20.6955  12.2900   C.2       1 RES1   0.0000
  7239 C6      36.0976  23.8915  14.4622   C.2       1 RES1   0.0000
  7240 C7      44.1590  23.8915  12.2900   C.2       1 RES1   0.0000
  7241 C8      44.1590  20.6955  14.4622   C.2       1 RES1   0.0000
  7242 C9      47.9596  18.2628   2.8607   C.2       1 RES1   0.0000
  7243 C10     50.1318  18.2628   6.0567   C.2       1 RES1   0.0000
  7244 C11     47.9596  26.3242   6.0567   C.2       1 RES1   0.0000
  7245 C12     50.1318  26.3242   2.8607   C.2       1 RES1   0.0000
  7246 C13     50.6437  23.3796  17.4068   C.2       1 RES1   0.0000
  7247 C14     47.4477  21.2074  17.4068   C.2       1 RES1   0.0000
  7248 C15     47.4477  23.3796   9.3454   C.2       1 RES1   0.0000
  7249 C16     50.6437  21.2074   9.3454   C.2       1 RES1   0.0000
  7250 C17     53.0764  32.8089   5.5448   C.2       1 RES1   0.0000
  7251 C18     53.0764  29.6129   3.3726   C.2       1 RES1   0.0000
  7252 C19     45.0150  29.6129   5.5448   C.2       1 RES1   0.0000
  7253 C20     45.0150  32.8089   3.3726   C.2       1 RES1   0.0000
  7254 C21     41.2144  35.2416  14.9741   C.2       1 RES1   0.0000
  7255 C22     39.0422  35.2416  11.7781   C.2       1 RES1   0.0000
  7256 C23     41.2144  27.1802  11.7781   C.2       1 RES1   0.0000
  7257 C24     39.0422  27.1802  14.9741   C.2       1 RES1   0.0000
  7258 C25     39.4898  31.3090   0.4334   C.2       1 RES1   0.0000
  7259 C26     40.7668  31.1128   0.4334   C.2       1 RES1   0.0000
  7260 C27     40.7668  31.3090   8.4840   C.2       1 RES1   0.0000
  7261 C28     39.4898  31.1128   8.4840   C.2       1 RES1   0.0000
  7262 C29     36.1030  21.6550  13.4742   C.2       1 RES1   0.0000
  7263 C30     36.1030  22.9320  13.2780   C.2       1 RES1   0.0000
  7264 C31     44.1536  22.9320  13.4742   C.2       1 RES1   0.0000
  7265 C32     44.1536  21.6550  13.2780   C.2       1 RES1   0.0000
  7266 C33     49.1438  18.2682   3.8202   C.2       1 RES1   0.0000
  7267 C34     48.9476  18.2682   5.0972   C.2       1 RES1   0.0000
  7268 C35     49.1438  26.3188   5.0972   C.2       1 RES1   0.0000
  7269 C36     48.9476  26.3188   3.8202   C.2       1 RES1   0.0000
  7270 C37     49.6842  22.1954  17.4014   C.2       1 RES1   0.0000
  7271 C38     48.4072  22.3916  17.4014   C.2       1 RES1   0.0000
  7272 C39     48.4072  22.1954   9.3508   C.2       1 RES1   0.0000
  7273 C40     49.6842  22.3916   9.3508   C.2       1 RES1   0.0000
  7274 C41     53.0710  31.8494   4.3606   C.2       1 RES1   0.0000
  7275 C42     53.0710  30.5724   4.5568   C.2       1 RES1   0.0000
  7276 C43     45.0204  30.5724   4.3606   C.2       1 RES1   0.0000
  7277 C44     45.0204  31.8494   4.5568   C.2       1 RES1   0.0000
  7278 C45     40.0302  35.2362  14.0146   C.2       1 RES1   0.0000
  7279 C46     40.2264  35.2362  12.7376   C.2       1 RES1   0.0000
  7280 C47     40.0302  27.1856  12.7376   C.2       1 RES1   0.0000
  7281 C48     40.2264  27.1856  14.0146   C.2       1 RES1   0.0000
  7282 H1      39.1563  32.1775   0.4352   H         1 RES1   0.0000
  7283 H2      41.1003  30.2443   0.4352   H         1 RES1   0.0000
  7284 H3      41.1003  32.1775   8.4822   H         1 RES1   0.0000
  7285 H4      39.1563  30.2443   8.4822   H         1 RES1   0.0000
  7286 H5      36.1048  21.3215  14.3427   H         1 RES1   0.0000
  7287 H6      36.1048  23.2655  12.4095   H         1 RES1   0.0000
  7288 H7      44.1518  23.2655  14.3427   H         1 RES1   0.0000
  7289 H8      44.1518  21.3215  12.4095   H         1 RES1   0.0000
  7290 H9      50.0123  18.2700   3.4867   H         1 RES1   0.0000
  7291 H10     48.0791  18.2700   5.4307   H         1 RES1   0.0000
  7292 H11     50.0123  26.3170   5.4307   H         1 RES1   0.0000
  7293 H12     48.0791  26.3170   3.4867   H         1 RES1   0.0000
  7294 H13     50.0177  21.3269  17.3996   H         1 RES1   0.0000
  7295 H14     48.0737  23.2601  17.3996   H         1 RES1   0.0000
  7296 H15     48.0737  21.3269   9.3526   H         1 RES1   0.0000
  7297 H16     50.0177  23.2601   9.3526   H         1 RES1   0.0000
  7298 H17     53.0692  32.1829   3.4921   H         1 RES1   0.0000
  7299 H18     53.0692  30.2389   5.4253   H         1 RES1   0.0000
  7300 H19     45.0222  30.2389   3.4921   H         1 RES1   0.0000
  7301 H20     45.0222  32.1829   5.4253   H         1 RES1   0.0000
  7302 H21     39.1617  35.2344  14.3481   H         1 RES1   0.0000
  7303 H22     41.0949  35.2344  12.4041   H         1 RES1   0.0000
  7304 H23     39.1617  27.1874  12.4041   H         1 RES1   0.0000
  7305 H24     41.0949  27.1874  14.3481   H         1 RES1   0.0000
  7306 C49     39.0689  23.8951   0.0000   C.2       1 RES1   0.0000
  7307 C50     41.1877  20.6919   0.0000   C.2       1 RES1   0.0000
  7308 C51     41.1877  23.8951   8.9174   C.2       1 RES1   0.0000
  7309 C52     39.0689  20.6919   8.9174   C.2       1 RES1   0.0000
  7310 C53     35.6696  21.2341   6.0603   C.2       1 RES1   0.0000
  7311 C54     35.6696  23.3529   2.8571   C.2       1 RES1   0.0000
  7312 C55     44.5870  23.3529   6.0603   C.2       1 RES1   0.0000
  7313 C56     44.5870  21.2341   2.8571   C.2       1 RES1   0.0000
  7314 C57     41.7299  17.8348   3.3993   C.2       1 RES1   0.0000
  7315 C58     38.5267  17.8348   5.5181   C.2       1 RES1   0.0000
  7316 C59     41.7299  26.7522   5.5181   C.2       1 RES1   0.0000
  7317 C60     38.5267  26.7522   3.3993   C.2       1 RES1   0.0000
  7318 C61     50.1051  29.6093  17.8348   C.2       1 RES1   0.0000
  7319 C62     47.9863  32.8125  17.8348   C.2       1 RES1   0.0000
  7320 C63     47.9863  29.6093   8.9174   C.2       1 RES1   0.0000
  7321 C64     50.1051  32.8125   8.9174   C.2       1 RES1   0.0000
  7322 C65     53.5044  32.2703  11.7745   C.2       1 RES1   0.0000
  7323 C66     53.5044  30.1515  14.9777   C.2       1 RES1   0.0000
  7324 C67     44.5870  30.1515  11.7745   C.2       1 RES1   0.0000
  7325 C68     44.5870  32.2703  14.9777   C.2       1 RES1   0.0000
  7326 C69     47.4441  35.6696  14.4355   C.2       1 RES1   0.0000
  7327 C70     50.6473  35.6696  12.3167   C.2       1 RES1   0.0000
  7328 C71     47.4441  26.7522  12.3167   C.2       1 RES1   0.0000
  7329 C72     50.6473  26.7522  14.4355   C.2       1 RES1   0.0000
  7330 C73     40.2478  22.9445   0.0018   C.2       1 RES1   0.0000
  7331 C74     40.0088  21.6425   0.0018   C.2       1 RES1   0.0000
  7332 C75     40.0088  22.9445   8.9156   C.2       1 RES1   0.0000
  7333 C76     40.2478  21.6425   8.9156   C.2       1 RES1   0.0000
  7334 C77     35.6714  22.4130   5.1097   C.2       1 RES1   0.0000
  7335 C78     35.6714  22.1740   3.8077   C.2       1 RES1   0.0000
  7336 C79     44.5852  22.1740   5.1097   C.2       1 RES1   0.0000
  7337 C80     44.5852  22.4130   3.8077   C.2       1 RES1   0.0000
  7338 C81     40.7793  17.8366   4.5782   C.2       1 RES1   0.0000
  7339 C82     39.4773  17.8366   4.3392   C.2       1 RES1   0.0000
  7340 C83     40.7793  26.7504   4.3392   C.2       1 RES1   0.0000
  7341 C84     39.4773  26.7504   4.5782   C.2       1 RES1   0.0000
  7342 C85     48.9262  30.5599  17.8330   C.2       1 RES1   0.0000
  7343 C86     49.1652  31.8619  17.8330   C.2       1 RES1   0.0000
  7344 C87     49.1652  30.5599   8.9192   C.2       1 RES1   0.0000
  7345 C88     48.9262  31.8619   8.9192   C.2       1 RES1   0.0000
  7346 C89     53.5026  31.0914  12.7251   C.2       1 RES1   0.0000
  7347 C90     53.5026  31.3304  14.0271   C.2       1 RES1   0.0000
  7348 C91     44.5888  31.3304  12.7251   C.2       1 RES1   0.0000
  7349 C92     44.5888  31.0914  14.0271   C.2       1 RES1   0.0000
  7350 C93     48.3947  35.6678  13.2566   C.2       1 RES1   0.0000
  7351 C94     49.6967  35.6678  13.4956   C.2       1 RES1   0.0000
  7352 C95     48.3947  26.7540  13.4956   C.2       1 RES1   0.0000
  7353 C96     49.6967  26.7540  13.2566   C.2       1 RES1   0.0000
  7354 H25     41.1199  23.2673   0.0018   H         1 RES1   0.0000
  7355 H26     39.1367  21.3197   0.0018   H         1 RES1   0.0000
  7356 H27     39.1367  23.2673   8.9156   H         1 RES1   0.0000
  7357 H28     41.1199  21.3197   8.9156   H         1 RES1   0.0000
  7358 H29     35.6714  23.2851   5.4325   H         1 RES1   0.0000
  7359 H30     35.6714  21.3019   3.4849   H         1 RES1   0.0000
  7360 H31     44.5852  21.3019   5.4325   H         1 RES1   0.0000
  7361 H32     44.5852  23.2851   3.4849   H         1 RES1   0.0000
  7362 H33     41.1021  17.8366   5.4503   H         1 RES1   0.0000
  7363 H34     39.1545  17.8366   3.4671   H         1 RES1   0.0000
  7364 H35     41.1021  26.7504   3.4671   H         1 RES1   0.0000
  7365 H36     39.1545  26.7504   5.4503   H         1 RES1   0.0000
  7366 H37     48.0541  30.2371  17.8330   H         1 RES1   0.0000
  7367 H38     50.0373  32.1847  17.8330   H         1 RES1   0.0000
  7368 H39     50.0373  30.2371   8.9192   H         1 RES1   0.0000
  7369 H40     48.0541  32.1847   8.9192   H         1 RES1   0.0000
  7370 H41     53.5026  30.2193  12.4023   H         1 RES1   0.0000
  7371 H42     53.5026  32.2025  14.3499   H         1 RES1   0.0000
  7372 H43     44.5888  32.2025  12.4023   H         1 RES1   0.0000
  7373 H44     44.5888  30.2193  14.3499   H         1 RES1   0.0000
  7374 H45     48.0719  35.6678  12.3845   H         1 RES1   0.0000
  7375 H46     50.0195  35.6678  14.3677   H         1 RES1   0.0000
  7376 H47     48.0719  26.7540  14.3677   H         1 RES1   0.0000
  7377 H48     50.0195  26.7540  12.3845   H         1 RES1   0.0000
  7378 O98     43.2226  34.0341  16.6809   O3        1 RES1   0.0000
  7379 O99     43.2226  28.3877  10.0713   O3        1 RES1   0.0000
  7380 O101    52.3505  19.1992  10.5529   O3        1 RES1   0.0000
  7381 O102    52.3505  25.3878  16.1993   O3        1 RES1   0.0000
  7382 O103    45.7409  25.3878  10.5529   O3        1 RES1   0.0000
  7383 O105    46.2225  34.5157   1.3644   O3        1 RES1   0.0000
  7384 O106    51.8689  34.5157   7.5530   O3        1 RES1   0.0000
  7385 O107    46.2225  27.9061   7.5530   O3        1 RES1   0.0000
  7386 O108    51.8689  27.9061   1.3644   O3        1 RES1   0.0000
  7387 O109    52.1400  25.1167   1.1539   O3        1 RES1   0.0000
  7388 O110    45.9514  19.4703   1.1539   O3        1 RES1   0.0000
  7389 O111    45.9514  25.1167   7.7635   O3        1 RES1   0.0000
  7390 O112    52.1400  19.4703   7.7635   O3        1 RES1   0.0000
  7391 O115    43.4331  28.1166   7.2819   O3        1 RES1   0.0000
  7392 O116    43.4331  34.3052   1.6355   O3        1 RES1   0.0000
  7393 O119    42.9515  25.5983  10.2818   O3        1 RES1   0.0000
  7394 O155    43.1870  25.3522   7.5174   O3        1 RES1   0.0000
  7395 O157    52.1044  28.1522  16.4348   O3        1 RES1   0.0000
  7396 O158    45.9870  34.2696  16.4348   O3        1 RES1   0.0000
  7397 O159    45.9870  28.1522  10.3174   O3        1 RES1   0.0000
  7398 O160    52.1044  34.2696  10.3174   O3        1 RES1   0.0000
  7399 Zr1     55.9629  26.9507   0.2119   Zr        1 RES1   0.0000
  7400 Zr2     42.1285  35.4711  18.0467   Zr        1 RES1   0.0000
  7401 Zr4     55.9629  35.4711   8.7055   Zr        1 RES1   0.0000
  7402 Zr5     53.7163  20.2933   9.1159   Zr        1 RES1   0.0000
  7403 Zr6     53.7163  24.2937  -0.1985   Zr        1 RES1   0.0000
  7404 Zr6     53.7163  24.2937  17.6363   Zr        1 RES1   0.0000
  7405 Zr8     44.3751  38.1281  -0.1985   Zr        1 RES1   0.0000
  7406 Zr8     44.3751  38.1281  17.6363   Zr        1 RES1   0.0000
  7407 Zr9     44.7855  35.8815   2.4585   Zr        1 RES1   0.0000
  7408 Zr10    53.3059  35.8815   6.4589   Zr        1 RES1   0.0000
  7409 Zr12    53.3059  26.5403  20.2933   Zr        1 RES1   0.0000
  7410 Zr13    51.0459  26.5537  -0.2119   Zr        1 RES1   0.0000
  7411 Zr14    47.0455  35.8681  -0.2119   Zr        1 RES1   0.0000
  7412 Zr14    47.0455  35.8681  17.6229   Zr        1 RES1   0.0000
  7413 Zr16    51.0459  35.8681   9.1293   Zr        1 RES1   0.0000
  7414 Zr18    53.2925  29.2107  18.0333   Zr        1 RES1   0.0000
  7415 Zr20    44.7989  33.2111  18.0333   Zr        1 RES1   0.0000
  7416 Zr21    44.3885  35.4577  -2.4585   Zr        1 RES1   0.0000
  7417 Zr22    53.7029  35.4577  11.3759   Zr        1 RES1   0.0000
  7418 Zr24    53.7029  26.9641  -2.4585   Zr        1 RES1   0.0000
  7419 Zr24    53.7029  26.9641  15.3763   Zr        1 RES1   0.0000
  7420 O2      40.8595  37.3015   0.1427   Oco2      1 RES1   0.0000
  7421 O4      39.3971  37.3015   8.7747   Oco2      1 RES1   0.0000
  7422 O6      35.8123  23.0247  19.4667   Oco2      1 RES1   0.0000
  7423 O8      44.4443  21.5623  19.4667   Oco2      1 RES1   0.0000
  7424 O10     55.1363  17.9775   5.1899   O.2       1 RES1   0.0000
  7425 O12     55.1363  26.6095   3.7275   O.2       1 RES1   0.0000
  7426 O18     53.3617  30.4797  -1.6319   O.2       1 RES1   0.0000
  7427 O20     44.7297  31.9421  -1.6319   O.2       1 RES1   0.0000
  7428 O50     41.2055  35.5394   2.2525   Oco2      1 RES1   0.0000
  7429 O52     39.0511  35.5394   6.6649   Oco2      1 RES1   0.0000
  7430 O54     37.9221  23.3707  17.7046   Oco2      1 RES1   0.0000
  7431 O56     42.3345  21.2163  17.7046   Oco2      1 RES1   0.0000
  7432 O58     53.3742  20.0873   5.5359   O.2       1 RES1   0.0000
  7433 O60     53.3742  24.4997   3.3815   O.2       1 RES1   0.0000
  7434 O66     51.2519  30.1337   0.1302   O.2       1 RES1   0.0000
  7435 O68     46.8395  32.2881   0.1302   O.2       1 RES1   0.0000
  7436 O73     39.3935  27.1785  -1.6158   O.2       1 RES1   0.0000
  7437 O74     40.8631  35.2433  -1.6158   O.2       1 RES1   0.0000
  7438 O85     49.7805  26.3259  19.4506   Oco2      1 RES1   0.0000
  7439 O86     48.3109  18.2611  19.4506   Oco2      1 RES1   0.0000
  7440 O89     55.1202  31.9457   8.4911   O.2       1 RES1   0.0000
  7441 O90     55.1202  30.4761   0.4263   O.2       1 RES1   0.0000
  7442 O93     44.1607  37.2854  14.1109   Oco2      1 RES1   0.0000
  7443 O94     36.0959  37.2854  12.6413   Oco2      1 RES1   0.0000
  7444 O97     54.8688  28.3877  -1.1539   O3        1 RES1   0.0000
  7445 O98     43.2226  34.0341  -1.1539   O3        1 RES1   0.0000
  7446 O100    54.8688  34.0341  10.0713   O3        1 RES1   0.0000
  7447 O104    45.7409  37.0340  16.1993   O3        1 RES1   0.0000
  7448 O108    51.8689  27.9061  19.1992   O3        1 RES1   0.0000
  7449 O109    52.1400  25.1167  18.9887   O3        1 RES1   0.0000
  7450 O110    45.9514  19.4703  18.9887   O3        1 RES1   0.0000
  7451 O113    54.6583  34.3052   7.2819   O3        1 RES1   0.0000
  7452 O114    54.6583  28.1166   1.6355   O3        1 RES1   0.0000
  7453 O117    42.9515  36.8235  -1.3644   O3        1 RES1   0.0000
  7454 O117    42.9515  36.8235  16.4704   O3        1 RES1   0.0000
  7455 O118    37.3051  36.8235  10.2818   O3        1 RES1   0.0000
  7456 O120    37.3051  25.5983  -1.3644   O3        1 RES1   0.0000
  7457 O153    54.9044  25.3522   1.4000   O3        1 RES1   0.0000
  7458 O154    43.1870  37.0696   1.4000   O3        1 RES1   0.0000
  7459 O156    54.9044  19.2348   7.5174   O3        1 RES1   0.0000
  7460 O157    52.1044  28.1522  -1.4000   O3        1 RES1   0.0000
  7461 O158    45.9870  34.2696  -1.4000   O3        1 RES1   0.0000
  7462 Zr3     42.1285  26.9507  26.5403   Zr        1 RES1   0.0000
  7463 Zr7     44.3751  24.2937  26.9507   Zr        1 RES1   0.0000
  7464 Zr11    44.7855  26.5403  24.2937   Zr        1 RES1   0.0000
  7465 Zr13    51.0459  26.5537  35.4577   Zr        1 RES1   0.0000
  7466 Zr15    47.0455  26.5537  26.9641   Zr        1 RES1   0.0000
  7467 Zr17    53.2925  33.2111  26.5537   Zr        1 RES1   0.0000
  7468 Zr19    44.7989  29.2107  26.5537   Zr        1 RES1   0.0000
  7469 Zr21    44.3885  35.4577  33.2111   Zr        1 RES1   0.0000
  7470 Zr23    44.3885  26.9641  29.2107   Zr        1 RES1   0.0000
  7471 O1      39.3971  25.1203  17.9775   Oco2      1 RES1   0.0000
  7472 O3      40.8595  25.1203  26.6095   Oco2      1 RES1   0.0000
  7473 O5      35.8123  21.5623  25.1203   Oco2      1 RES1   0.0000
  7474 O7      44.4443  23.0247  25.1203   Oco2      1 RES1   0.0000
  7475 O9      42.9551  17.9775  21.5623   Oco2      1 RES1   0.0000
  7476 O11     42.9551  26.6095  23.0247   Oco2      1 RES1   0.0000
  7477 O13     49.7769  28.3841  35.5269   Oco2      1 RES1   0.0000
  7478 O14     48.3145  34.0377  35.5269   Oco2      1 RES1   0.0000
  7479 O15     48.3145  28.3841  26.8949   Oco2      1 RES1   0.0000
  7480 O16     49.7769  34.0377  26.8949   Oco2      1 RES1   0.0000
  7481 O17     53.3617  31.9421  28.3841   Oco2      1 RES1   0.0000
  7482 O18     53.3617  30.4797  34.0377   Oco2      1 RES1   0.0000
  7483 O19     44.7297  30.4797  28.3841   Oco2      1 RES1   0.0000
  7484 O20     44.7297  31.9421  34.0377   Oco2      1 RES1   0.0000
  7485 O21     46.2189  35.5269  31.9421   Oco2      1 RES1   0.0000
  7486 O22     51.8725  35.5269  30.4797   Oco2      1 RES1   0.0000
  7487 O23     46.2189  26.8949  30.4797   Oco2      1 RES1   0.0000
  7488 O24     51.8725  26.8949  31.9421   Oco2      1 RES1   0.0000
  7489 O25     39.0653  28.9744  18.2735   Oco2      1 RES1   0.0000
  7490 O26     41.1913  33.4474  18.2735   Oco2      1 RES1   0.0000
  7491 O27     41.1913  28.9744  26.3135   Oco2      1 RES1   0.0000
  7492 O28     39.0653  33.4474  26.3135   Oco2      1 RES1   0.0000
  7493 O29     36.1083  21.2305  28.9744   Oco2      1 RES1   0.0000
  7494 O30     36.1083  23.3565  33.4474   Oco2      1 RES1   0.0000
  7495 O31     44.1483  23.3565  28.9744   Oco2      1 RES1   0.0000
  7496 O32     44.1483  21.2305  33.4474   Oco2      1 RES1   0.0000
  7497 O33     46.8092  18.2735  21.2305   Oco2      1 RES1   0.0000
  7498 O34     51.2822  18.2735  23.3565   Oco2      1 RES1   0.0000
  7499 O35     46.8092  26.3135  23.3565   Oco2      1 RES1   0.0000
  7500 O36     51.2822  26.3135  21.2305   Oco2      1 RES1   0.0000
  7501 O37     50.1087  24.5300  35.2309   Oco2      1 RES1   0.0000
  7502 O38     47.9827  20.0570  35.2309   Oco2      1 RES1   0.0000
  7503 O39     47.9827  24.5300  27.1909   Oco2      1 RES1   0.0000
  7504 O40     50.1087  20.0570  27.1909   Oco2      1 RES1   0.0000
  7505 O41     53.0657  32.2739  24.5300   Oco2      1 RES1   0.0000
  7506 O42     53.0657  30.1479  20.0570   Oco2      1 RES1   0.0000
  7507 O43     45.0257  30.1479  24.5300   Oco2      1 RES1   0.0000
  7508 O44     45.0257  32.2739  20.0570   Oco2      1 RES1   0.0000
  7509 O45     42.3648  35.2309  32.2739   Oco2      1 RES1   0.0000
  7510 O46     37.8918  35.2309  30.1479   Oco2      1 RES1   0.0000
  7511 O47     42.3648  27.1909  30.1479   Oco2      1 RES1   0.0000
  7512 O48     37.8918  27.1909  32.2739   Oco2      1 RES1   0.0000
  7513 O49     39.0511  26.8824  20.0873   Oco2      1 RES1   0.0000
  7514 O51     41.2055  26.8824  24.4997   Oco2      1 RES1   0.0000
  7515 O53     37.9221  21.2163  26.8824   Oco2      1 RES1   0.0000
  7516 O55     42.3345  23.3707  26.8824   Oco2      1 RES1   0.0000
  7517 O57     44.7172  20.0873  21.2163   Oco2      1 RES1   0.0000
  7518 O59     44.7172  24.4997  23.3707   Oco2      1 RES1   0.0000
  7519 O61     50.1229  26.6220  33.4171   Oco2      1 RES1   0.0000
  7520 O62     47.9685  35.7998  33.4171   Oco2      1 RES1   0.0000
  7521 O63     47.9685  26.6220  29.0047   Oco2      1 RES1   0.0000
  7522 O64     50.1229  35.7998  29.0047   Oco2      1 RES1   0.0000
  7523 O65     51.2519  32.2881  26.6220   Oco2      1 RES1   0.0000
  7524 O66     51.2519  30.1337  35.7998   Oco2      1 RES1   0.0000
  7525 O67     46.8395  30.1337  26.6220   Oco2      1 RES1   0.0000
  7526 O68     46.8395  32.2881  35.7998   Oco2      1 RES1   0.0000
  7527 O69     44.4568  33.4171  32.2881   Oco2      1 RES1   0.0000
  7528 O70     53.6346  33.4171  30.1337   Oco2      1 RES1   0.0000
  7529 O71     44.4568  29.0047  30.1337   Oco2      1 RES1   0.0000
  7530 O72     53.6346  29.0047  32.2881   Oco2      1 RES1   0.0000
  7531 O73     39.3935  27.1785  34.0538   Oco2      1 RES1   0.0000
  7532 O74     40.8631  35.2433  34.0538   Oco2      1 RES1   0.0000
  7533 O75     40.8631  27.1785  28.3680   Oco2      1 RES1   0.0000
  7534 O76     39.3935  35.2433  28.3680   Oco2      1 RES1   0.0000
  7535 O77     51.8886  21.5587  27.1785   Oco2      1 RES1   0.0000
  7536 O78     51.8886  23.0283  35.2433   Oco2      1 RES1   0.0000
  7537 O79     46.2028  23.0283  27.1785   Oco2      1 RES1   0.0000
  7538 O80     46.2028  21.5587  35.2433   Oco2      1 RES1   0.0000
  7539 O81     45.0133  34.0538  21.5587   Oco2      1 RES1   0.0000
  7540 O82     53.0781  34.0538  23.0283   Oco2      1 RES1   0.0000
  7541 O83     45.0133  28.3680  23.0283   Oco2      1 RES1   0.0000
  7542 O84     53.0781  28.3680  21.5587   Oco2      1 RES1   0.0000
  7543 O87     48.3109  26.3259  25.1364   Oco2      1 RES1   0.0000
  7544 O88     49.7805  18.2611  25.1364   Oco2      1 RES1   0.0000
  7545 O91     42.9712  30.4761  26.3259   Oco2      1 RES1   0.0000
  7546 O92     42.9712  31.9457  18.2611   Oco2      1 RES1   0.0000
  7547 O95     44.1607  25.1364  30.4761   Oco2      1 RES1   0.0000
  7548 O96     36.0959  25.1364  31.9457   Oco2      1 RES1   0.0000
  7549 C1      38.5303  30.1248  18.2628   C.2       1 RES1   0.0000
  7550 C2      41.7263  32.2970  18.2628   C.2       1 RES1   0.0000
  7551 C3      41.7263  30.1248  26.3242   C.2       1 RES1   0.0000
  7552 C4      38.5303  32.2970  26.3242   C.2       1 RES1   0.0000
  7553 C5      36.0976  20.6955  30.1248   C.2       1 RES1   0.0000
  7554 C6      36.0976  23.8915  32.2970   C.2       1 RES1   0.0000
  7555 C7      44.1590  23.8915  30.1248   C.2       1 RES1   0.0000
  7556 C8      44.1590  20.6955  32.2970   C.2       1 RES1   0.0000
  7557 C9      47.9596  18.2628  20.6955   C.2       1 RES1   0.0000
  7558 C10     50.1318  18.2628  23.8915   C.2       1 RES1   0.0000
  7559 C11     47.9596  26.3242  23.8915   C.2       1 RES1   0.0000
  7560 C12     50.1318  26.3242  20.6955   C.2       1 RES1   0.0000
  7561 C13     50.6437  23.3796  35.2416   C.2       1 RES1   0.0000
  7562 C14     47.4477  21.2074  35.2416   C.2       1 RES1   0.0000
  7563 C15     47.4477  23.3796  27.1802   C.2       1 RES1   0.0000
  7564 C16     50.6437  21.2074  27.1802   C.2       1 RES1   0.0000
  7565 C17     53.0764  32.8089  23.3796   C.2       1 RES1   0.0000
  7566 C18     53.0764  29.6129  21.2074   C.2       1 RES1   0.0000
  7567 C19     45.0150  29.6129  23.3796   C.2       1 RES1   0.0000
  7568 C20     45.0150  32.8089  21.2074   C.2       1 RES1   0.0000
  7569 C21     41.2144  35.2416  32.8089   C.2       1 RES1   0.0000
  7570 C22     39.0422  35.2416  29.6129   C.2       1 RES1   0.0000
  7571 C23     41.2144  27.1802  29.6129   C.2       1 RES1   0.0000
  7572 C24     39.0422  27.1802  32.8089   C.2       1 RES1   0.0000
  7573 C25     39.4898  31.3090  18.2682   C.2       1 RES1   0.0000
  7574 C26     40.7668  31.1128  18.2682   C.2       1 RES1   0.0000
  7575 C27     40.7668  31.3090  26.3188   C.2       1 RES1   0.0000
  7576 C28     39.4898  31.1128  26.3188   C.2       1 RES1   0.0000
  7577 C29     36.1030  21.6550  31.3090   C.2       1 RES1   0.0000
  7578 C30     36.1030  22.9320  31.1128   C.2       1 RES1   0.0000
  7579 C31     44.1536  22.9320  31.3090   C.2       1 RES1   0.0000
  7580 C32     44.1536  21.6550  31.1128   C.2       1 RES1   0.0000
  7581 C33     49.1438  18.2682  21.6550   C.2       1 RES1   0.0000
  7582 C34     48.9476  18.2682  22.9320   C.2       1 RES1   0.0000
  7583 C35     49.1438  26.3188  22.9320   C.2       1 RES1   0.0000
  7584 C36     48.9476  26.3188  21.6550   C.2       1 RES1   0.0000
  7585 C37     49.6842  22.1954  35.2362   C.2       1 RES1   0.0000
  7586 C38     48.4072  22.3916  35.2362   C.2       1 RES1   0.0000
  7587 C39     48.4072  22.1954  27.1856   C.2       1 RES1   0.0000
  7588 C40     49.6842  22.3916  27.1856   C.2       1 RES1   0.0000
  7589 C41     53.0710  31.8494  22.1954   C.2       1 RES1   0.0000
  7590 C42     53.0710  30.5724  22.3916   C.2       1 RES1   0.0000
  7591 C43     45.0204  30.5724  22.1954   C.2       1 RES1   0.0000
  7592 C44     45.0204  31.8494  22.3916   C.2       1 RES1   0.0000
  7593 C45     40.0302  35.2362  31.8494   C.2       1 RES1   0.0000
  7594 C46     40.2264  35.2362  30.5724   C.2       1 RES1   0.0000
  7595 C47     40.0302  27.1856  30.5724   C.2       1 RES1   0.0000
  7596 C48     40.2264  27.1856  31.8494   C.2       1 RES1   0.0000
  7597 H1      39.1563  32.1775  18.2700   H         1 RES1   0.0000
  7598 H2      41.1003  30.2443  18.2700   H         1 RES1   0.0000
  7599 H3      41.1003  32.1775  26.3170   H         1 RES1   0.0000
  7600 H4      39.1563  30.2443  26.3170   H         1 RES1   0.0000
  7601 H5      36.1048  21.3215  32.1775   H         1 RES1   0.0000
  7602 H6      36.1048  23.2655  30.2443   H         1 RES1   0.0000
  7603 H7      44.1518  23.2655  32.1775   H         1 RES1   0.0000
  7604 H8      44.1518  21.3215  30.2443   H         1 RES1   0.0000
  7605 H9      50.0123  18.2700  21.3215   H         1 RES1   0.0000
  7606 H10     48.0791  18.2700  23.2655   H         1 RES1   0.0000
  7607 H11     50.0123  26.3170  23.2655   H         1 RES1   0.0000
  7608 H12     48.0791  26.3170  21.3215   H         1 RES1   0.0000
  7609 H13     50.0177  21.3269  35.2344   H         1 RES1   0.0000
  7610 H14     48.0737  23.2601  35.2344   H         1 RES1   0.0000
  7611 H15     48.0737  21.3269  27.1874   H         1 RES1   0.0000
  7612 H16     50.0177  23.2601  27.1874   H         1 RES1   0.0000
  7613 H17     53.0692  32.1829  21.3269   H         1 RES1   0.0000
  7614 H18     53.0692  30.2389  23.2601   H         1 RES1   0.0000
  7615 H19     45.0222  30.2389  21.3269   H         1 RES1   0.0000
  7616 H20     45.0222  32.1829  23.2601   H         1 RES1   0.0000
  7617 H21     39.1617  35.2344  32.1829   H         1 RES1   0.0000
  7618 H22     41.0949  35.2344  30.2389   H         1 RES1   0.0000
  7619 H23     39.1617  27.1874  30.2389   H         1 RES1   0.0000
  7620 H24     41.0949  27.1874  32.1829   H         1 RES1   0.0000
  7621 C49     39.0689  23.8951  17.8348   C.2       1 RES1   0.0000
  7622 C50     41.1877  20.6919  17.8348   C.2       1 RES1   0.0000
  7623 C51     41.1877  23.8951  26.7522   C.2       1 RES1   0.0000
  7624 C52     39.0689  20.6919  26.7522   C.2       1 RES1   0.0000
  7625 C53     35.6696  21.2341  23.8951   C.2       1 RES1   0.0000
  7626 C54     35.6696  23.3529  20.6919   C.2       1 RES1   0.0000
  7627 C55     44.5870  23.3529  23.8951   C.2       1 RES1   0.0000
  7628 C56     44.5870  21.2341  20.6919   C.2       1 RES1   0.0000
  7629 C57     41.7299  17.8348  21.2341   C.2       1 RES1   0.0000
  7630 C58     38.5267  17.8348  23.3529   C.2       1 RES1   0.0000
  7631 C59     41.7299  26.7522  23.3529   C.2       1 RES1   0.0000
  7632 C60     38.5267  26.7522  21.2341   C.2       1 RES1   0.0000
  7633 C61     50.1051  29.6093  35.6696   C.2       1 RES1   0.0000
  7634 C62     47.9863  32.8125  35.6696   C.2       1 RES1   0.0000
  7635 C63     47.9863  29.6093  26.7522   C.2       1 RES1   0.0000
  7636 C64     50.1051  32.8125  26.7522   C.2       1 RES1   0.0000
  7637 C65     53.5044  32.2703  29.6093   C.2       1 RES1   0.0000
  7638 C66     53.5044  30.1515  32.8125   C.2       1 RES1   0.0000
  7639 C67     44.5870  30.1515  29.6093   C.2       1 RES1   0.0000
  7640 C68     44.5870  32.2703  32.8125   C.2       1 RES1   0.0000
  7641 C69     47.4441  35.6696  32.2703   C.2       1 RES1   0.0000
  7642 C70     50.6473  35.6696  30.1515   C.2       1 RES1   0.0000
  7643 C71     47.4441  26.7522  30.1515   C.2       1 RES1   0.0000
  7644 C72     50.6473  26.7522  32.2703   C.2       1 RES1   0.0000
  7645 C73     40.2478  22.9445  17.8366   C.2       1 RES1   0.0000
  7646 C74     40.0088  21.6425  17.8366   C.2       1 RES1   0.0000
  7647 C75     40.0088  22.9445  26.7504   C.2       1 RES1   0.0000
  7648 C76     40.2478  21.6425  26.7504   C.2       1 RES1   0.0000
  7649 C77     35.6714  22.4130  22.9445   C.2       1 RES1   0.0000
  7650 C78     35.6714  22.1740  21.6425   C.2       1 RES1   0.0000
  7651 C79     44.5852  22.1740  22.9445   C.2       1 RES1   0.0000
  7652 C80     44.5852  22.4130  21.6425   C.2       1 RES1   0.0000
  7653 C81     40.7793  17.8366  22.4130   C.2       1 RES1   0.0000
  7654 C82     39.4773  17.8366  22.1740   C.2       1 RES1   0.0000
  7655 C83     40.7793  26.7504  22.1740   C.2       1 RES1   0.0000
  7656 C84     39.4773  26.7504  22.4130   C.2       1 RES1   0.0000
  7657 C85     48.9262  30.5599  35.6678   C.2       1 RES1   0.0000
  7658 C86     49.1652  31.8619  35.6678   C.2       1 RES1   0.0000
  7659 C87     49.1652  30.5599  26.7540   C.2       1 RES1   0.0000
  7660 C88     48.9262  31.8619  26.7540   C.2       1 RES1   0.0000
  7661 C89     53.5026  31.0914  30.5599   C.2       1 RES1   0.0000
  7662 C90     53.5026  31.3304  31.8619   C.2       1 RES1   0.0000
  7663 C91     44.5888  31.3304  30.5599   C.2       1 RES1   0.0000
  7664 C92     44.5888  31.0914  31.8619   C.2       1 RES1   0.0000
  7665 C93     48.3947  35.6678  31.0914   C.2       1 RES1   0.0000
  7666 C94     49.6967  35.6678  31.3304   C.2       1 RES1   0.0000
  7667 C95     48.3947  26.7540  31.3304   C.2       1 RES1   0.0000
  7668 C96     49.6967  26.7540  31.0914   C.2       1 RES1   0.0000
  7669 H25     41.1199  23.2673  17.8366   H         1 RES1   0.0000
  7670 H26     39.1367  21.3197  17.8366   H         1 RES1   0.0000
  7671 H27     39.1367  23.2673  26.7504   H         1 RES1   0.0000
  7672 H28     41.1199  21.3197  26.7504   H         1 RES1   0.0000
  7673 H29     35.6714  23.2851  23.2673   H         1 RES1   0.0000
  7674 H30     35.6714  21.3019  21.3197   H         1 RES1   0.0000
  7675 H31     44.5852  21.3019  23.2673   H         1 RES1   0.0000
  7676 H32     44.5852  23.2851  21.3197   H         1 RES1   0.0000
  7677 H33     41.1021  17.8366  23.2851   H         1 RES1   0.0000
  7678 H34     39.1545  17.8366  21.3019   H         1 RES1   0.0000
  7679 H35     41.1021  26.7504  21.3019   H         1 RES1   0.0000
  7680 H36     39.1545  26.7504  23.2851   H         1 RES1   0.0000
  7681 H37     48.0541  30.2371  35.6678   H         1 RES1   0.0000
  7682 H38     50.0373  32.1847  35.6678   H         1 RES1   0.0000
  7683 H39     50.0373  30.2371  26.7540   H         1 RES1   0.0000
  7684 H40     48.0541  32.1847  26.7540   H         1 RES1   0.0000
  7685 H41     53.5026  30.2193  30.2371   H         1 RES1   0.0000
  7686 H42     53.5026  32.2025  32.1847   H         1 RES1   0.0000
  7687 H43     44.5888  32.2025  30.2371   H         1 RES1   0.0000
  7688 H44     44.5888  30.2193  32.1847   H         1 RES1   0.0000
  7689 H45     48.0719  35.6678  30.2193   H         1 RES1   0.0000
  7690 H46     50.0195  35.6678  32.2025   H         1 RES1   0.0000
  7691 H47     48.0719  26.7540  32.2025   H         1 RES1   0.0000
  7692 H48     50.0195  26.7540  30.2193   H         1 RES1   0.0000
  7693 O98     43.2226  34.0341  34.5157   O3        1 RES1   0.0000
  7694 O99     43.2226  28.3877  27.9061   O3        1 RES1   0.0000
  7695 O101    52.3505  19.1992  28.3877   O3        1 RES1   0.0000
  7696 O102    52.3505  25.3878  34.0341   O3        1 RES1   0.0000
  7697 O103    45.7409  25.3878  28.3877   O3        1 RES1   0.0000
  7698 O105    46.2225  34.5157  19.1992   O3        1 RES1   0.0000
  7699 O106    51.8689  34.5157  25.3878   O3        1 RES1   0.0000
  7700 O107    46.2225  27.9061  25.3878   O3        1 RES1   0.0000
  7701 O111    45.9514  25.1167  25.5983   O3        1 RES1   0.0000
  7702 O112    52.1400  19.4703  25.5983   O3        1 RES1   0.0000
  7703 O115    43.4331  28.1166  25.1167   O3        1 RES1   0.0000
  7704 O116    43.4331  34.3052  19.4703   O3        1 RES1   0.0000
  7705 O119    42.9515  25.5983  28.1166   O3        1 RES1   0.0000
  7706 O155    43.1870  25.3522  25.3522   O3        1 RES1   0.0000
  7707 O157    52.1044  28.1522  34.2696   O3        1 RES1   0.0000
  7708 O158    45.9870  34.2696  34.2696   O3        1 RES1   0.0000
  7709 O159    45.9870  28.1522  28.1522   O3        1 RES1   0.0000
  7710 O160    52.1044  34.2696  28.1522   O3        1 RES1   0.0000
  7711 Zr1     55.9629  26.9507  18.0467   Zr        1 RES1   0.0000
  7712 Zr2     42.1285  35.4711  35.8815   Zr        1 RES1   0.0000
  7713 Zr4     55.9629  35.4711  26.5403   Zr        1 RES1   0.0000
  7714 Zr5     53.7163  20.2933  26.9507   Zr        1 RES1   0.0000
  7715 Zr6     53.7163  24.2937  35.4711   Zr        1 RES1   0.0000
  7716 Zr8     44.3751  38.1281  35.4711   Zr        1 RES1   0.0000
  7717 Zr9     44.7855  35.8815  20.2933   Zr        1 RES1   0.0000
  7718 Zr10    53.3059  35.8815  24.2937   Zr        1 RES1   0.0000
  7719 Zr12    53.3059  26.5403  38.1281   Zr        1 RES1   0.0000
  7720 Zr14    47.0455  35.8681  35.4577   Zr        1 RES1   0.0000
  7721 Zr16    51.0459  35.8681  26.9641   Zr        1 RES1   0.0000
  7722 Zr18    53.2925  29.2107  35.8681   Zr        1 RES1   0.0000
  7723 Zr20    44.7989  33.2111  35.8681   Zr        1 RES1   0.0000
  7724 Zr22    53.7029  35.4577  29.2107   Zr        1 RES1   0.0000
  7725 Zr24    53.7029  26.9641  33.2111   Zr        1 RES1   0.0000
  7726 O2      40.8595  37.3015  17.9775   Oco2      1 RES1   0.0000
  7727 O4      39.3971  37.3015  26.6095   Oco2      1 RES1   0.0000
  7728 O6      35.8123  23.0247  37.3015   Oco2      1 RES1   0.0000
  7729 O8      44.4443  21.5623  37.3015   Oco2      1 RES1   0.0000
  7730 O10     55.1363  17.9775  23.0247   O.2       1 RES1   0.0000
  7731 O12     55.1363  26.6095  21.5623   O.2       1 RES1   0.0000
  7732 O50     41.2055  35.5394  20.0873   Oco2      1 RES1   0.0000
  7733 O52     39.0511  35.5394  24.4997   Oco2      1 RES1   0.0000
  7734 O54     37.9221  23.3707  35.5394   Oco2      1 RES1   0.0000
  7735 O56     42.3345  21.2163  35.5394   Oco2      1 RES1   0.0000
  7736 O58     53.3742  20.0873  23.3707   O.2       1 RES1   0.0000
  7737 O60     53.3742  24.4997  21.2163   O.2       1 RES1   0.0000
  7738 O85     49.7805  26.3259  37.2854   Oco2      1 RES1   0.0000
  7739 O86     48.3109  18.2611  37.2854   Oco2      1 RES1   0.0000
  7740 O89     55.1202  31.9457  26.3259   O.2       1 RES1   0.0000
  7741 O90     55.1202  30.4761  18.2611   O.2       1 RES1   0.0000
  7742 O93     44.1607  37.2854  31.9457   Oco2      1 RES1   0.0000
  7743 O94     36.0959  37.2854  30.4761   Oco2      1 RES1   0.0000
  7744 O97     54.8688  28.3877  16.6809   O3        1 RES1   0.0000
  7745 O100    54.8688  34.0341  27.9061   O3        1 RES1   0.0000
  7746 O104    45.7409  37.0340  34.0341   O3        1 RES1   0.0000
  7747 O108    51.8689  27.9061  37.0340   O3        1 RES1   0.0000
  7748 O109    52.1400  25.1167  36.8235   O3        1 RES1   0.0000
  7749 O110    45.9514  19.4703  36.8235   O3        1 RES1   0.0000
  7750 O113    54.6583  34.3052  25.1167   O3        1 RES1   0.0000
  7751 O114    54.6583  28.1166  19.4703   O3        1 RES1   0.0000
  7752 O117    42.9515  36.8235  34.3052   O3        1 RES1   0.0000
  7753 O118    37.3051  36.8235  28.1166   O3        1 RES1   0.0000
  7754 O120    37.3051  25.5983  16.4704   O3        1 RES1   0.0000
  7755 O153    54.9044  25.3522  19.2348   O3        1 RES1   0.0000
  7756 O154    43.1870  37.0696  19.2348   O3        1 RES1   0.0000
  7757 O156    54.9044  19.2348  25.3522   O3        1 RES1   0.0000
  7758 Zr3     42.1285  26.9507  44.3751   Zr        1 RES1   0.0000
  7759 Zr7     44.3751  24.2937  44.7855   Zr        1 RES1   0.0000
  7760 Zr11    44.7855  26.5403  42.1285   Zr        1 RES1   0.0000
  7761 Zr13    51.0459  26.5537  53.2925   Zr        1 RES1   0.0000
  7762 Zr15    47.0455  26.5537  44.7989   Zr        1 RES1   0.0000
  7763 Zr17    53.2925  33.2111  44.3885   Zr        1 RES1   0.0000
  7764 Zr19    44.7989  29.2107  44.3885   Zr        1 RES1   0.0000
  7765 Zr21    44.3885  35.4577  51.0459   Zr        1 RES1   0.0000
  7766 Zr23    44.3885  26.9641  47.0455   Zr        1 RES1   0.0000
  7767 O1      39.3971  25.1203  35.8123   Oco2      1 RES1   0.0000
  7768 O3      40.8595  25.1203  44.4443   Oco2      1 RES1   0.0000
  7769 O5      35.8123  21.5623  42.9551   Oco2      1 RES1   0.0000
  7770 O7      44.4443  23.0247  42.9551   Oco2      1 RES1   0.0000
  7771 O9      42.9551  17.9775  39.3971   Oco2      1 RES1   0.0000
  7772 O11     42.9551  26.6095  40.8595   Oco2      1 RES1   0.0000
  7773 O13     49.7769  28.3841  53.3617   Oco2      1 RES1   0.0000
  7774 O14     48.3145  34.0377  53.3617   Oco2      1 RES1   0.0000
  7775 O15     48.3145  28.3841  44.7297   Oco2      1 RES1   0.0000
  7776 O16     49.7769  34.0377  44.7297   Oco2      1 RES1   0.0000
  7777 O17     53.3617  31.9421  46.2189   Oco2      1 RES1   0.0000
  7778 O18     53.3617  30.4797  51.8725   Oco2      1 RES1   0.0000
  7779 O19     44.7297  30.4797  46.2189   Oco2      1 RES1   0.0000
  7780 O20     44.7297  31.9421  51.8725   Oco2      1 RES1   0.0000
  7781 O21     46.2189  35.5269  49.7769   Oco2      1 RES1   0.0000
  7782 O22     51.8725  35.5269  48.3145   Oco2      1 RES1   0.0000
  7783 O23     46.2189  26.8949  48.3145   Oco2      1 RES1   0.0000
  7784 O24     51.8725  26.8949  49.7769   Oco2      1 RES1   0.0000
  7785 O25     39.0653  28.9744  36.1083   Oco2      1 RES1   0.0000
  7786 O26     41.1913  33.4474  36.1083   Oco2      1 RES1   0.0000
  7787 O27     41.1913  28.9744  44.1483   Oco2      1 RES1   0.0000
  7788 O28     39.0653  33.4474  44.1483   Oco2      1 RES1   0.0000
  7789 O29     36.1083  21.2305  46.8092   Oco2      1 RES1   0.0000
  7790 O30     36.1083  23.3565  51.2822   Oco2      1 RES1   0.0000
  7791 O31     44.1483  23.3565  46.8092   Oco2      1 RES1   0.0000
  7792 O32     44.1483  21.2305  51.2822   Oco2      1 RES1   0.0000
  7793 O33     46.8092  18.2735  39.0653   Oco2      1 RES1   0.0000
  7794 O34     51.2822  18.2735  41.1913   Oco2      1 RES1   0.0000
  7795 O35     46.8092  26.3135  41.1913   Oco2      1 RES1   0.0000
  7796 O36     51.2822  26.3135  39.0653   Oco2      1 RES1   0.0000
  7797 O37     50.1087  24.5300  53.0657   Oco2      1 RES1   0.0000
  7798 O38     47.9827  20.0570  53.0657   Oco2      1 RES1   0.0000
  7799 O39     47.9827  24.5300  45.0257   Oco2      1 RES1   0.0000
  7800 O40     50.1087  20.0570  45.0257   Oco2      1 RES1   0.0000
  7801 O41     53.0657  32.2739  42.3648   Oco2      1 RES1   0.0000
  7802 O42     53.0657  30.1479  37.8918   Oco2      1 RES1   0.0000
  7803 O43     45.0257  30.1479  42.3648   Oco2      1 RES1   0.0000
  7804 O44     45.0257  32.2739  37.8918   Oco2      1 RES1   0.0000
  7805 O45     42.3648  35.2309  50.1087   Oco2      1 RES1   0.0000
  7806 O46     37.8918  35.2309  47.9827   Oco2      1 RES1   0.0000
  7807 O47     42.3648  27.1909  47.9827   Oco2      1 RES1   0.0000
  7808 O48     37.8918  27.1909  50.1087   Oco2      1 RES1   0.0000
  7809 O49     39.0511  26.8824  37.9221   Oco2      1 RES1   0.0000
  7810 O51     41.2055  26.8824  42.3345   Oco2      1 RES1   0.0000
  7811 O53     37.9221  21.2163  44.7172   Oco2      1 RES1   0.0000
  7812 O55     42.3345  23.3707  44.7172   Oco2      1 RES1   0.0000
  7813 O57     44.7172  20.0873  39.0511   Oco2      1 RES1   0.0000
  7814 O59     44.7172  24.4997  41.2055   Oco2      1 RES1   0.0000
  7815 O61     50.1229  26.6220  51.2519   Oco2      1 RES1   0.0000
  7816 O62     47.9685  35.7998  51.2519   Oco2      1 RES1   0.0000
  7817 O63     47.9685  26.6220  46.8395   Oco2      1 RES1   0.0000
  7818 O64     50.1229  35.7998  46.8395   Oco2      1 RES1   0.0000
  7819 O65     51.2519  32.2881  44.4568   Oco2      1 RES1   0.0000
  7820 O66     51.2519  30.1337  53.6346   Oco2      1 RES1   0.0000
  7821 O67     46.8395  30.1337  44.4568   Oco2      1 RES1   0.0000
  7822 O68     46.8395  32.2881  53.6346   Oco2      1 RES1   0.0000
  7823 O69     44.4568  33.4171  50.1229   Oco2      1 RES1   0.0000
  7824 O70     53.6346  33.4171  47.9685   Oco2      1 RES1   0.0000
  7825 O71     44.4568  29.0047  47.9685   Oco2      1 RES1   0.0000
  7826 O72     53.6346  29.0047  50.1229   Oco2      1 RES1   0.0000
  7827 O73     39.3935  27.1785  51.8886   Oco2      1 RES1   0.0000
  7828 O74     40.8631  35.2433  51.8886   Oco2      1 RES1   0.0000
  7829 O75     40.8631  27.1785  46.2028   Oco2      1 RES1   0.0000
  7830 O76     39.3935  35.2433  46.2028   Oco2      1 RES1   0.0000
  7831 O77     51.8886  21.5587  45.0133   Oco2      1 RES1   0.0000
  7832 O78     51.8886  23.0283  53.0781   Oco2      1 RES1   0.0000
  7833 O79     46.2028  23.0283  45.0133   Oco2      1 RES1   0.0000
  7834 O80     46.2028  21.5587  53.0781   Oco2      1 RES1   0.0000
  7835 O81     45.0133  34.0538  39.3935   Oco2      1 RES1   0.0000
  7836 O82     53.0781  34.0538  40.8631   Oco2      1 RES1   0.0000
  7837 O83     45.0133  28.3680  40.8631   Oco2      1 RES1   0.0000
  7838 O84     53.0781  28.3680  39.3935   Oco2      1 RES1   0.0000
  7839 O87     48.3109  26.3259  42.9712   Oco2      1 RES1   0.0000
  7840 O88     49.7805  18.2611  42.9712   Oco2      1 RES1   0.0000
  7841 O91     42.9712  30.4761  44.1607   Oco2      1 RES1   0.0000
  7842 O92     42.9712  31.9457  36.0959   Oco2      1 RES1   0.0000
  7843 O95     44.1607  25.1364  48.3109   Oco2      1 RES1   0.0000
  7844 O96     36.0959  25.1364  49.7805   Oco2      1 RES1   0.0000
  7845 C1      38.5303  30.1248  36.0976   C.2       1 RES1   0.0000
  7846 C2      41.7263  32.2970  36.0976   C.2       1 RES1   0.0000
  7847 C3      41.7263  30.1248  44.1590   C.2       1 RES1   0.0000
  7848 C4      38.5303  32.2970  44.1590   C.2       1 RES1   0.0000
  7849 C5      36.0976  20.6955  47.9596   C.2       1 RES1   0.0000
  7850 C6      36.0976  23.8915  50.1318   C.2       1 RES1   0.0000
  7851 C7      44.1590  23.8915  47.9596   C.2       1 RES1   0.0000
  7852 C8      44.1590  20.6955  50.1318   C.2       1 RES1   0.0000
  7853 C9      47.9596  18.2628  38.5303   C.2       1 RES1   0.0000
  7854 C10     50.1318  18.2628  41.7263   C.2       1 RES1   0.0000
  7855 C11     47.9596  26.3242  41.7263   C.2       1 RES1   0.0000
  7856 C12     50.1318  26.3242  38.5303   C.2       1 RES1   0.0000
  7857 C13     50.6437  23.3796  53.0764   C.2       1 RES1   0.0000
  7858 C14     47.4477  21.2074  53.0764   C.2       1 RES1   0.0000
  7859 C15     47.4477  23.3796  45.0150   C.2       1 RES1   0.0000
  7860 C16     50.6437  21.2074  45.0150   C.2       1 RES1   0.0000
  7861 C17     53.0764  32.8089  41.2144   C.2       1 RES1   0.0000
  7862 C18     53.0764  29.6129  39.0422   C.2       1 RES1   0.0000
  7863 C19     45.0150  29.6129  41.2144   C.2       1 RES1   0.0000
  7864 C20     45.0150  32.8089  39.0422   C.2       1 RES1   0.0000
  7865 C21     41.2144  35.2416  50.6437   C.2       1 RES1   0.0000
  7866 C22     39.0422  35.2416  47.4477   C.2       1 RES1   0.0000
  7867 C23     41.2144  27.1802  47.4477   C.2       1 RES1   0.0000
  7868 C24     39.0422  27.1802  50.6437   C.2       1 RES1   0.0000
  7869 C25     39.4898  31.3090  36.1030   C.2       1 RES1   0.0000
  7870 C26     40.7668  31.1128  36.1030   C.2       1 RES1   0.0000
  7871 C27     40.7668  31.3090  44.1536   C.2       1 RES1   0.0000
  7872 C28     39.4898  31.1128  44.1536   C.2       1 RES1   0.0000
  7873 C29     36.1030  21.6550  49.1438   C.2       1 RES1   0.0000
  7874 C30     36.1030  22.9320  48.9476   C.2       1 RES1   0.0000
  7875 C31     44.1536  22.9320  49.1438   C.2       1 RES1   0.0000
  7876 C32     44.1536  21.6550  48.9476   C.2       1 RES1   0.0000
  7877 C33     49.1438  18.2682  39.4898   C.2       1 RES1   0.0000
  7878 C34     48.9476  18.2682  40.7668   C.2       1 RES1   0.0000
  7879 C35     49.1438  26.3188  40.7668   C.2       1 RES1   0.0000
  7880 C36     48.9476  26.3188  39.4898   C.2       1 RES1   0.0000
  7881 C37     49.6842  22.1954  53.0710   C.2       1 RES1   0.0000
  7882 C38     48.4072  22.3916  53.0710   C.2       1 RES1   0.0000
  7883 C39     48.4072  22.1954  45.0204   C.2       1 RES1   0.0000
  7884 C40     49.6842  22.3916  45.0204   C.2       1 RES1   0.0000
  7885 C41     53.0710  31.8494  40.0302   C.2       1 RES1   0.0000
  7886 C42     53.0710  30.5724  40.2264   C.2       1 RES1   0.0000
  7887 C43     45.0204  30.5724  40.0302   C.2       1 RES1   0.0000
  7888 C44     45.0204  31.8494  40.2264   C.2       1 RES1   0.0000
  7889 C45     40.0302  35.2362  49.6842   C.2       1 RES1   0.0000
  7890 C46     40.2264  35.2362  48.4072   C.2       1 RES1   0.0000
  7891 C47     40.0302  27.1856  48.4072   C.2       1 RES1   0.0000
  7892 C48     40.2264  27.1856  49.6842   C.2       1 RES1   0.0000
  7893 H1      39.1563  32.1775  36.1048   H         1 RES1   0.0000
  7894 H2      41.1003  30.2443  36.1048   H         1 RES1   0.0000
  7895 H3      41.1003  32.1775  44.1518   H         1 RES1   0.0000
  7896 H4      39.1563  30.2443  44.1518   H         1 RES1   0.0000
  7897 H5      36.1048  21.3215  50.0123   H         1 RES1   0.0000
  7898 H6      36.1048  23.2655  48.0791   H         1 RES1   0.0000
  7899 H7      44.1518  23.2655  50.0123   H         1 RES1   0.0000
  7900 H8      44.1518  21.3215  48.0791   H         1 RES1   0.0000
  7901 H9      50.0123  18.2700  39.1563   H         1 RES1   0.0000
  7902 H10     48.0791  18.2700  41.1003   H         1 RES1   0.0000
  7903 H11     50.0123  26.3170  41.1003   H         1 RES1   0.0000
  7904 H12     48.0791  26.3170  39.1563   H         1 RES1   0.0000
  7905 H13     50.0177  21.3269  53.0692   H         1 RES1   0.0000
  7906 H14     48.0737  23.2601  53.0692   H         1 RES1   0.0000
  7907 H15     48.0737  21.3269  45.0222   H         1 RES1   0.0000
  7908 H16     50.0177  23.2601  45.0222   H         1 RES1   0.0000
  7909 H17     53.0692  32.1829  39.1617   H         1 RES1   0.0000
  7910 H18     53.0692  30.2389  41.0949   H         1 RES1   0.0000
  7911 H19     45.0222  30.2389  39.1617   H         1 RES1   0.0000
  7912 H20     45.0222  32.1829  41.0949   H         1 RES1   0.0000
  7913 H21     39.1617  35.2344  50.0177   H         1 RES1   0.0000
  7914 H22     41.0949  35.2344  48.0737   H         1 RES1   0.0000
  7915 H23     39.1617  27.1874  48.0737   H         1 RES1   0.0000
  7916 H24     41.0949  27.1874  50.0177   H         1 RES1   0.0000
  7917 C49     39.0689  23.8951  35.6696   C.2       1 RES1   0.0000
  7918 C50     41.1877  20.6919  35.6696   C.2       1 RES1   0.0000
  7919 C51     41.1877  23.8951  44.5870   C.2       1 RES1   0.0000
  7920 C52     39.0689  20.6919  44.5870   C.2       1 RES1   0.0000
  7921 C53     35.6696  21.2341  41.7299   C.2       1 RES1   0.0000
  7922 C54     35.6696  23.3529  38.5267   C.2       1 RES1   0.0000
  7923 C55     44.5870  23.3529  41.7299   C.2       1 RES1   0.0000
  7924 C56     44.5870  21.2341  38.5267   C.2       1 RES1   0.0000
  7925 C57     41.7299  17.8348  39.0689   C.2       1 RES1   0.0000
  7926 C58     38.5267  17.8348  41.1877   C.2       1 RES1   0.0000
  7927 C59     41.7299  26.7522  41.1877   C.2       1 RES1   0.0000
  7928 C60     38.5267  26.7522  39.0689   C.2       1 RES1   0.0000
  7929 C61     50.1051  29.6093  53.5044   C.2       1 RES1   0.0000
  7930 C62     47.9863  32.8125  53.5044   C.2       1 RES1   0.0000
  7931 C63     47.9863  29.6093  44.5870   C.2       1 RES1   0.0000
  7932 C64     50.1051  32.8125  44.5870   C.2       1 RES1   0.0000
  7933 C65     53.5044  32.2703  47.4441   C.2       1 RES1   0.0000
  7934 C66     53.5044  30.1515  50.6473   C.2       1 RES1   0.0000
  7935 C67     44.5870  30.1515  47.4441   C.2       1 RES1   0.0000
  7936 C68     44.5870  32.2703  50.6473   C.2       1 RES1   0.0000
  7937 C69     47.4441  35.6696  50.1051   C.2       1 RES1   0.0000
  7938 C70     50.6473  35.6696  47.9863   C.2       1 RES1   0.0000
  7939 C71     47.4441  26.7522  47.9863   C.2       1 RES1   0.0000
  7940 C72     50.6473  26.7522  50.1051   C.2       1 RES1   0.0000
  7941 C73     40.2478  22.9445  35.6714   C.2       1 RES1   0.0000
  7942 C74     40.0088  21.6425  35.6714   C.2       1 RES1   0.0000
  7943 C75     40.0088  22.9445  44.5852   C.2       1 RES1   0.0000
  7944 C76     40.2478  21.6425  44.5852   C.2       1 RES1   0.0000
  7945 C77     35.6714  22.4130  40.7793   C.2       1 RES1   0.0000
  7946 C78     35.6714  22.1740  39.4773   C.2       1 RES1   0.0000
  7947 C79     44.5852  22.1740  40.7793   C.2       1 RES1   0.0000
  7948 C80     44.5852  22.4130  39.4773   C.2       1 RES1   0.0000
  7949 C81     40.7793  17.8366  40.2478   C.2       1 RES1   0.0000
  7950 C82     39.4773  17.8366  40.0088   C.2       1 RES1   0.0000
  7951 C83     40.7793  26.7504  40.0088   C.2       1 RES1   0.0000
  7952 C84     39.4773  26.7504  40.2478   C.2       1 RES1   0.0000
  7953 C85     48.9262  30.5599  53.5026   C.2       1 RES1   0.0000
  7954 C86     49.1652  31.8619  53.5026   C.2       1 RES1   0.0000
  7955 C87     49.1652  30.5599  44.5888   C.2       1 RES1   0.0000
  7956 C88     48.9262  31.8619  44.5888   C.2       1 RES1   0.0000
  7957 C89     53.5026  31.0914  48.3947   C.2       1 RES1   0.0000
  7958 C90     53.5026  31.3304  49.6967   C.2       1 RES1   0.0000
  7959 C91     44.5888  31.3304  48.3947   C.2       1 RES1   0.0000
  7960 C92     44.5888  31.0914  49.6967   C.2       1 RES1   0.0000
  7961 C93     48.3947  35.6678  48.9262   C.2       1 RES1   0.0000
  7962 C94     49.6967  35.6678  49.1652   C.2       1 RES1   0.0000
  7963 C95     48.3947  26.7540  49.1652   C.2       1 RES1   0.0000
  7964 C96     49.6967  26.7540  48.9262   C.2       1 RES1   0.0000
  7965 H25     41.1199  23.2673  35.6714   H         1 RES1   0.0000
  7966 H26     39.1367  21.3197  35.6714   H         1 RES1   0.0000
  7967 H27     39.1367  23.2673  44.5852   H         1 RES1   0.0000
  7968 H28     41.1199  21.3197  44.5852   H         1 RES1   0.0000
  7969 H29     35.6714  23.2851  41.1021   H         1 RES1   0.0000
  7970 H30     35.6714  21.3019  39.1545   H         1 RES1   0.0000
  7971 H31     44.5852  21.3019  41.1021   H         1 RES1   0.0000
  7972 H32     44.5852  23.2851  39.1545   H         1 RES1   0.0000
  7973 H33     41.1021  17.8366  41.1199   H         1 RES1   0.0000
  7974 H34     39.1545  17.8366  39.1367   H         1 RES1   0.0000
  7975 H35     41.1021  26.7504  39.1367   H         1 RES1   0.0000
  7976 H36     39.1545  26.7504  41.1199   H         1 RES1   0.0000
  7977 H37     48.0541  30.2371  53.5026   H         1 RES1   0.0000
  7978 H38     50.0373  32.1847  53.5026   H         1 RES1   0.0000
  7979 H39     50.0373  30.2371  44.5888   H         1 RES1   0.0000
  7980 H40     48.0541  32.1847  44.5888   H         1 RES1   0.0000
  7981 H41     53.5026  30.2193  48.0719   H         1 RES1   0.0000
  7982 H42     53.5026  32.2025  50.0195   H         1 RES1   0.0000
  7983 H43     44.5888  32.2025  48.0719   H         1 RES1   0.0000
  7984 H44     44.5888  30.2193  50.0195   H         1 RES1   0.0000
  7985 H45     48.0719  35.6678  48.0541   H         1 RES1   0.0000
  7986 H46     50.0195  35.6678  50.0373   H         1 RES1   0.0000
  7987 H47     48.0719  26.7540  50.0373   H         1 RES1   0.0000
  7988 H48     50.0195  26.7540  48.0541   H         1 RES1   0.0000
  7989 O97     37.0340  28.3877  52.3505   O3        1 RES1   0.0000
  7990 O98     43.2226  34.0341  52.3505   O3        1 RES1   0.0000
  7991 O99     43.2226  28.3877  45.7409   O3        1 RES1   0.0000
  7992 O101    52.3505  19.1992  46.2225   O3        1 RES1   0.0000
  7993 O102    52.3505  25.3878  51.8689   O3        1 RES1   0.0000
  7994 O103    45.7409  25.3878  46.2225   O3        1 RES1   0.0000
  7995 O105    46.2225  34.5157  37.0340   O3        1 RES1   0.0000
  7996 O106    51.8689  34.5157  43.2226   O3        1 RES1   0.0000
  7997 O107    46.2225  27.9061  43.2226   O3        1 RES1   0.0000
  7998 O111    45.9514  25.1167  43.4331   O3        1 RES1   0.0000
  7999 O112    52.1400  19.4703  43.4331   O3        1 RES1   0.0000
  8000 O115    43.4331  28.1166  42.9515   O3        1 RES1   0.0000
  8001 O116    43.4331  34.3052  37.3051   O3        1 RES1   0.0000
  8002 O119    42.9515  25.5983  45.9514   O3        1 RES1   0.0000
  8003 O155    43.1870  25.3522  43.1870   O3        1 RES1   0.0000
  8004 O157    52.1044  28.1522  52.1044   O3        1 RES1   0.0000
  8005 O158    45.9870  34.2696  52.1044   O3        1 RES1   0.0000
  8006 O159    45.9870  28.1522  45.9870   O3        1 RES1   0.0000
  8007 O160    52.1044  34.2696  45.9870   O3        1 RES1   0.0000
  8008 Zr1     38.1281  26.9507  53.7163   Zr        1 RES1   0.0000
  8009 Zr1     55.9629  26.9507  35.8815   Zr        1 RES1   0.0000
  8010 Zr2     42.1285  35.4711  53.7163   Zr        1 RES1   0.0000
  8011 Zr4     55.9629  35.4711  44.3751   Zr        1 RES1   0.0000
  8012 Zr5     53.7163  20.2933  44.7855   Zr        1 RES1   0.0000
  8013 Zr6     53.7163  24.2937  53.3059   Zr        1 RES1   0.0000
  8014 Zr8     44.3751  38.1281  53.3059   Zr        1 RES1   0.0000
  8015 Zr9     44.7855  18.0467  55.9629   Zr        1 RES1   0.0000
  8016 Zr9     44.7855  35.8815  38.1281   Zr        1 RES1   0.0000
  8017 Zr10    53.3059  35.8815  42.1285   Zr        1 RES1   0.0000
  8018 Zr12    53.3059  26.5403  55.9629   Zr        1 RES1   0.0000
  8019 Zr14    47.0455  35.8681  53.2925   Zr        1 RES1   0.0000
  8020 Zr16    51.0459  35.8681  44.7989   Zr        1 RES1   0.0000
  8021 Zr18    53.2925  29.2107  53.7029   Zr        1 RES1   0.0000
  8022 Zr20    44.7989  33.2111  53.7029   Zr        1 RES1   0.0000
  8023 Zr22    53.7029  35.4577  47.0455   Zr        1 RES1   0.0000
  8024 Zr24    53.7029  26.9641  51.0459   Zr        1 RES1   0.0000
  8025 O2      40.8595  37.3015  35.8123   Oco2      1 RES1   0.0000
  8026 O4      39.3971  37.3015  44.4443   Oco2      1 RES1   0.0000
  8027 O6      35.8123  23.0247  55.1363   O.2       1 RES1   0.0000
  8028 O8      44.4443  21.5623  55.1363   O.2       1 RES1   0.0000
  8029 O10     55.1363  17.9775  40.8595   O.2       1 RES1   0.0000
  8030 O12     55.1363  26.6095  39.3971   O.2       1 RES1   0.0000
  8031 O50     41.2055  35.5394  37.9221   Oco2      1 RES1   0.0000
  8032 O52     39.0511  35.5394  42.3345   Oco2      1 RES1   0.0000
  8033 O54     37.9221  23.3707  53.3742   O.2       1 RES1   0.0000
  8034 O56     42.3345  21.2163  53.3742   O.2       1 RES1   0.0000
  8035 O58     53.3742  20.0873  41.2055   O.2       1 RES1   0.0000
  8036 O60     53.3742  24.4997  39.0511   O.2       1 RES1   0.0000
  8037 O85     49.7805  26.3259  55.1202   O.2       1 RES1   0.0000
  8038 O86     48.3109  18.2611  55.1202   O.2       1 RES1   0.0000
  8039 O89     55.1202  31.9457  44.1607   O.2       1 RES1   0.0000
  8040 O90     55.1202  30.4761  36.0959   O.2       1 RES1   0.0000
  8041 O93     44.1607  37.2854  49.7805   Oco2      1 RES1   0.0000
  8042 O94     36.0959  37.2854  48.3109   Oco2      1 RES1   0.0000
  8043 O97     54.8688  28.3877  34.5157   O3        1 RES1   0.0000
  8044 O100    54.8688  34.0341  45.7409   O3        1 RES1   0.0000
  8045 O104    45.7409  37.0340  51.8689   O3        1 RES1   0.0000
  8046 O105    46.2225  16.6809  54.8688   O3        1 RES1   0.0000
  8047 O108    51.8689  27.9061  54.8688   O3        1 RES1   0.0000
  8048 O109    52.1400  25.1167  54.6583   O3        1 RES1   0.0000
  8049 O110    45.9514  19.4703  54.6583   O3        1 RES1   0.0000
  8050 O113    54.6583  34.3052  42.9515   O3        1 RES1   0.0000
  8051 O114    54.6583  28.1166  37.3051   O3        1 RES1   0.0000
  8052 O117    42.9515  36.8235  52.1400   O3        1 RES1   0.0000
  8053 O118    37.3051  36.8235  45.9514   O3        1 RES1   0.0000
  8054 O120    37.3051  25.5983  34.3052   O3        1 RES1   0.0000
  8055 O153    37.0696  25.3522  54.9044   O3        1 RES1   0.0000
  8056 O153    54.9044  25.3522  37.0696   O3        1 RES1   0.0000
  8057 O154    43.1870  19.2348  54.9044   O3        1 RES1   0.0000
  8058 O154    43.1870  37.0696  37.0696   O3        1 RES1   0.0000
  8059 O156    54.9044  19.2348  43.1870   O3        1 RES1   0.0000
  8060 Zr2     42.1285  53.3059   0.2119   Zr        1 RES1   0.0000
  8061 Zr3     42.1285  44.7855   8.7055   Zr        1 RES1   0.0000
  8062 Zr7     44.3751  42.1285   9.1159   Zr        1 RES1   0.0000
  8063 Zr11    44.7855  44.3751   6.4589   Zr        1 RES1   0.0000
  8064 Zr12    53.3059  44.3751   2.4585   Zr        1 RES1   0.0000
  8065 Zr13    51.0459  44.3885  17.6229   Zr        1 RES1   0.0000
  8066 Zr15    47.0455  44.3885   9.1293   Zr        1 RES1   0.0000
  8067 Zr17    53.2925  51.0459   8.7189   Zr        1 RES1   0.0000
  8068 Zr18    53.2925  47.0455   0.1985   Zr        1 RES1   0.0000
  8069 Zr19    44.7989  47.0455   8.7189   Zr        1 RES1   0.0000
  8070 Zr20    44.7989  51.0459   0.1985   Zr        1 RES1   0.0000
  8071 Zr21    44.3885  53.2925  15.3763   Zr        1 RES1   0.0000
  8072 Zr23    44.3885  44.7989  11.3759   Zr        1 RES1   0.0000
  8073 O1      39.3971  42.9551   0.1427   Oco2      1 RES1   0.0000
  8074 O3      40.8595  42.9551   8.7747   Oco2      1 RES1   0.0000
  8075 O5      35.8123  39.3971   7.2855   Oco2      1 RES1   0.0000
  8076 O6      35.8123  40.8595   1.6319   Oco2      1 RES1   0.0000
  8077 O7      44.4443  40.8595   7.2855   Oco2      1 RES1   0.0000
  8078 O8      44.4443  39.3971   1.6319   Oco2      1 RES1   0.0000
  8079 O9      42.9551  35.8123   3.7275   Oco2      1 RES1   0.0000
  8080 O11     42.9551  44.4443   5.1899   Oco2      1 RES1   0.0000
  8081 O13     49.7769  46.2189  17.6921   Oco2      1 RES1   0.0000
  8082 O14     48.3145  51.8725  17.6921   Oco2      1 RES1   0.0000
  8083 O15     48.3145  46.2189   9.0601   Oco2      1 RES1   0.0000
  8084 O16     49.7769  51.8725   9.0601   Oco2      1 RES1   0.0000
  8085 O17     53.3617  49.7769  10.5493   Oco2      1 RES1   0.0000
  8086 O18     53.3617  48.3145  16.2029   Oco2      1 RES1   0.0000
  8087 O19     44.7297  48.3145  10.5493   Oco2      1 RES1   0.0000
  8088 O20     44.7297  49.7769  16.2029   Oco2      1 RES1   0.0000
  8089 O21     46.2189  53.3617  14.1073   Oco2      1 RES1   0.0000
  8090 O22     51.8725  53.3617  12.6449   Oco2      1 RES1   0.0000
  8091 O23     46.2189  44.7297  12.6449   Oco2      1 RES1   0.0000
  8092 O24     51.8725  44.7297  14.1073   Oco2      1 RES1   0.0000
  8093 O25     39.0653  46.8092   0.4387   Oco2      1 RES1   0.0000
  8094 O26     41.1913  51.2822   0.4387   Oco2      1 RES1   0.0000
  8095 O27     41.1913  46.8092   8.4787   Oco2      1 RES1   0.0000
  8096 O28     39.0653  51.2822   8.4787   Oco2      1 RES1   0.0000
  8097 O29     36.1083  39.0653  11.1396   Oco2      1 RES1   0.0000
  8098 O30     36.1083  41.1913  15.6126   Oco2      1 RES1   0.0000
  8099 O31     44.1483  41.1913  11.1396   Oco2      1 RES1   0.0000
  8100 O32     44.1483  39.0653  15.6126   Oco2      1 RES1   0.0000
  8101 O33     46.8092  36.1083   3.3957   Oco2      1 RES1   0.0000
  8102 O34     51.2822  36.1083   5.5217   Oco2      1 RES1   0.0000
  8103 O35     46.8092  44.1483   5.5217   Oco2      1 RES1   0.0000
  8104 O36     51.2822  44.1483   3.3957   Oco2      1 RES1   0.0000
  8105 O37     50.1087  42.3648  17.3961   Oco2      1 RES1   0.0000
  8106 O38     47.9827  37.8918  17.3961   Oco2      1 RES1   0.0000
  8107 O39     47.9827  42.3648   9.3561   Oco2      1 RES1   0.0000
  8108 O40     50.1087  37.8918   9.3561   Oco2      1 RES1   0.0000
  8109 O41     53.0657  50.1087   6.6952   Oco2      1 RES1   0.0000
  8110 O42     53.0657  47.9827   2.2222   Oco2      1 RES1   0.0000
  8111 O43     45.0257  47.9827   6.6952   Oco2      1 RES1   0.0000
  8112 O44     45.0257  50.1087   2.2222   Oco2      1 RES1   0.0000
  8113 O45     42.3648  53.0657  14.4391   Oco2      1 RES1   0.0000
  8114 O46     37.8918  53.0657  12.3131   Oco2      1 RES1   0.0000
  8115 O47     42.3648  45.0257  12.3131   Oco2      1 RES1   0.0000
  8116 O48     37.8918  45.0257  14.4391   Oco2      1 RES1   0.0000
  8117 O49     39.0511  44.7172   2.2525   Oco2      1 RES1   0.0000
  8118 O51     41.2055  44.7172   6.6649   Oco2      1 RES1   0.0000
  8119 O53     37.9221  39.0511   9.0476   Oco2      1 RES1   0.0000
  8120 O54     37.9221  41.2055  -0.1302   Oco2      1 RES1   0.0000
  8121 O55     42.3345  41.2055   9.0476   Oco2      1 RES1   0.0000
  8122 O56     42.3345  39.0511  -0.1302   Oco2      1 RES1   0.0000
  8123 O57     44.7172  37.9221   3.3815   Oco2      1 RES1   0.0000
  8124 O59     44.7172  42.3345   5.5359   Oco2      1 RES1   0.0000
  8125 O61     50.1229  44.4568  15.5823   Oco2      1 RES1   0.0000
  8126 O62     47.9685  53.6346  15.5823   Oco2      1 RES1   0.0000
  8127 O63     47.9685  44.4568  11.1699   Oco2      1 RES1   0.0000
  8128 O64     50.1229  53.6346  11.1699   Oco2      1 RES1   0.0000
  8129 O65     51.2519  50.1229   8.7872   Oco2      1 RES1   0.0000
  8130 O66     51.2519  47.9685  17.9650   Oco2      1 RES1   0.0000
  8131 O67     46.8395  47.9685   8.7872   Oco2      1 RES1   0.0000
  8132 O68     46.8395  50.1229  17.9650   Oco2      1 RES1   0.0000
  8133 O69     44.4568  51.2519  14.4533   Oco2      1 RES1   0.0000
  8134 O70     53.6346  51.2519  12.2989   Oco2      1 RES1   0.0000
  8135 O71     44.4568  46.8395  12.2989   Oco2      1 RES1   0.0000
  8136 O72     53.6346  46.8395  14.4533   Oco2      1 RES1   0.0000
  8137 O73     39.3935  45.0133  16.2190   Oco2      1 RES1   0.0000
  8138 O74     40.8631  53.0781  16.2190   Oco2      1 RES1   0.0000
  8139 O75     40.8631  45.0133  10.5332   Oco2      1 RES1   0.0000
  8140 O76     39.3935  53.0781  10.5332   Oco2      1 RES1   0.0000
  8141 O77     51.8886  39.3935   9.3437   Oco2      1 RES1   0.0000
  8142 O78     51.8886  40.8631  17.4085   Oco2      1 RES1   0.0000
  8143 O79     46.2028  40.8631   9.3437   Oco2      1 RES1   0.0000
  8144 O80     46.2028  39.3935  17.4085   Oco2      1 RES1   0.0000
  8145 O81     45.0133  51.8886   3.7239   Oco2      1 RES1   0.0000
  8146 O82     53.0781  51.8886   5.1935   Oco2      1 RES1   0.0000
  8147 O83     45.0133  46.2028   5.1935   Oco2      1 RES1   0.0000
  8148 O84     53.0781  46.2028   3.7239   Oco2      1 RES1   0.0000
  8149 O85     49.7805  44.1607   1.6158   Oco2      1 RES1   0.0000
  8150 O86     48.3109  36.0959   1.6158   Oco2      1 RES1   0.0000
  8151 O87     48.3109  44.1607   7.3016   Oco2      1 RES1   0.0000
  8152 O88     49.7805  36.0959   7.3016   Oco2      1 RES1   0.0000
  8153 O91     42.9712  48.3109   8.4911   Oco2      1 RES1   0.0000
  8154 O92     42.9712  49.7805   0.4263   Oco2      1 RES1   0.0000
  8155 O95     44.1607  42.9712  12.6413   Oco2      1 RES1   0.0000
  8156 O96     36.0959  42.9712  14.1109   Oco2      1 RES1   0.0000
  8157 C1      38.5303  47.9596   0.4280   C.2       1 RES1   0.0000
  8158 C2      41.7263  50.1318   0.4280   C.2       1 RES1   0.0000
  8159 C3      41.7263  47.9596   8.4894   C.2       1 RES1   0.0000
  8160 C4      38.5303  50.1318   8.4894   C.2       1 RES1   0.0000
  8161 C5      36.0976  38.5303  12.2900   C.2       1 RES1   0.0000
  8162 C6      36.0976  41.7263  14.4622   C.2       1 RES1   0.0000
  8163 C7      44.1590  41.7263  12.2900   C.2       1 RES1   0.0000
  8164 C8      44.1590  38.5303  14.4622   C.2       1 RES1   0.0000
  8165 C9      47.9596  36.0976   2.8607   C.2       1 RES1   0.0000
  8166 C10     50.1318  36.0976   6.0567   C.2       1 RES1   0.0000
  8167 C11     47.9596  44.1590   6.0567   C.2       1 RES1   0.0000
  8168 C12     50.1318  44.1590   2.8607   C.2       1 RES1   0.0000
  8169 C13     50.6437  41.2144  17.4068   C.2       1 RES1   0.0000
  8170 C14     47.4477  39.0422  17.4068   C.2       1 RES1   0.0000
  8171 C15     47.4477  41.2144   9.3454   C.2       1 RES1   0.0000
  8172 C16     50.6437  39.0422   9.3454   C.2       1 RES1   0.0000
  8173 C17     53.0764  50.6437   5.5448   C.2       1 RES1   0.0000
  8174 C18     53.0764  47.4477   3.3726   C.2       1 RES1   0.0000
  8175 C19     45.0150  47.4477   5.5448   C.2       1 RES1   0.0000
  8176 C20     45.0150  50.6437   3.3726   C.2       1 RES1   0.0000
  8177 C21     41.2144  53.0764  14.9741   C.2       1 RES1   0.0000
  8178 C22     39.0422  53.0764  11.7781   C.2       1 RES1   0.0000
  8179 C23     41.2144  45.0150  11.7781   C.2       1 RES1   0.0000
  8180 C24     39.0422  45.0150  14.9741   C.2       1 RES1   0.0000
  8181 C25     39.4898  49.1438   0.4334   C.2       1 RES1   0.0000
  8182 C26     40.7668  48.9476   0.4334   C.2       1 RES1   0.0000
  8183 C27     40.7668  49.1438   8.4840   C.2       1 RES1   0.0000
  8184 C28     39.4898  48.9476   8.4840   C.2       1 RES1   0.0000
  8185 C29     36.1030  39.4898  13.4742   C.2       1 RES1   0.0000
  8186 C30     36.1030  40.7668  13.2780   C.2       1 RES1   0.0000
  8187 C31     44.1536  40.7668  13.4742   C.2       1 RES1   0.0000
  8188 C32     44.1536  39.4898  13.2780   C.2       1 RES1   0.0000
  8189 C33     49.1438  36.1030   3.8202   C.2       1 RES1   0.0000
  8190 C34     48.9476  36.1030   5.0972   C.2       1 RES1   0.0000
  8191 C35     49.1438  44.1536   5.0972   C.2       1 RES1   0.0000
  8192 C36     48.9476  44.1536   3.8202   C.2       1 RES1   0.0000
  8193 C37     49.6842  40.0302  17.4014   C.2       1 RES1   0.0000
  8194 C38     48.4072  40.2264  17.4014   C.2       1 RES1   0.0000
  8195 C39     48.4072  40.0302   9.3508   C.2       1 RES1   0.0000
  8196 C40     49.6842  40.2264   9.3508   C.2       1 RES1   0.0000
  8197 C41     53.0710  49.6842   4.3606   C.2       1 RES1   0.0000
  8198 C42     53.0710  48.4072   4.5568   C.2       1 RES1   0.0000
  8199 C43     45.0204  48.4072   4.3606   C.2       1 RES1   0.0000
  8200 C44     45.0204  49.6842   4.5568   C.2       1 RES1   0.0000
  8201 C45     40.0302  53.0710  14.0146   C.2       1 RES1   0.0000
  8202 C46     40.2264  53.0710  12.7376   C.2       1 RES1   0.0000
  8203 C47     40.0302  45.0204  12.7376   C.2       1 RES1   0.0000
  8204 C48     40.2264  45.0204  14.0146   C.2       1 RES1   0.0000
  8205 H1      39.1563  50.0123   0.4352   H         1 RES1   0.0000
  8206 H2      41.1003  48.0791   0.4352   H         1 RES1   0.0000
  8207 H3      41.1003  50.0123   8.4822   H         1 RES1   0.0000
  8208 H4      39.1563  48.0791   8.4822   H         1 RES1   0.0000
  8209 H5      36.1048  39.1563  14.3427   H         1 RES1   0.0000
  8210 H6      36.1048  41.1003  12.4095   H         1 RES1   0.0000
  8211 H7      44.1518  41.1003  14.3427   H         1 RES1   0.0000
  8212 H8      44.1518  39.1563  12.4095   H         1 RES1   0.0000
  8213 H9      50.0123  36.1048   3.4867   H         1 RES1   0.0000
  8214 H10     48.0791  36.1048   5.4307   H         1 RES1   0.0000
  8215 H11     50.0123  44.1518   5.4307   H         1 RES1   0.0000
  8216 H12     48.0791  44.1518   3.4867   H         1 RES1   0.0000
  8217 H13     50.0177  39.1617  17.3996   H         1 RES1   0.0000
  8218 H14     48.0737  41.0949  17.3996   H         1 RES1   0.0000
  8219 H15     48.0737  39.1617   9.3526   H         1 RES1   0.0000
  8220 H16     50.0177  41.0949   9.3526   H         1 RES1   0.0000
  8221 H17     53.0692  50.0177   3.4921   H         1 RES1   0.0000
  8222 H18     53.0692  48.0737   5.4253   H         1 RES1   0.0000
  8223 H19     45.0222  48.0737   3.4921   H         1 RES1   0.0000
  8224 H20     45.0222  50.0177   5.4253   H         1 RES1   0.0000
  8225 H21     39.1617  53.0692  14.3481   H         1 RES1   0.0000
  8226 H22     41.0949  53.0692  12.4041   H         1 RES1   0.0000
  8227 H23     39.1617  45.0222  12.4041   H         1 RES1   0.0000
  8228 H24     41.0949  45.0222  14.3481   H         1 RES1   0.0000
  8229 C49     39.0689  41.7299   0.0000   C.2       1 RES1   0.0000
  8230 C50     41.1877  38.5267   0.0000   C.2       1 RES1   0.0000
  8231 C51     41.1877  41.7299   8.9174   C.2       1 RES1   0.0000
  8232 C52     39.0689  38.5267   8.9174   C.2       1 RES1   0.0000
  8233 C53     35.6696  39.0689   6.0603   C.2       1 RES1   0.0000
  8234 C54     35.6696  41.1877   2.8571   C.2       1 RES1   0.0000
  8235 C55     44.5870  41.1877   6.0603   C.2       1 RES1   0.0000
  8236 C56     44.5870  39.0689   2.8571   C.2       1 RES1   0.0000
  8237 C57     41.7299  35.6696   3.3993   C.2       1 RES1   0.0000
  8238 C58     38.5267  35.6696   5.5181   C.2       1 RES1   0.0000
  8239 C59     41.7299  44.5870   5.5181   C.2       1 RES1   0.0000
  8240 C60     38.5267  44.5870   3.3993   C.2       1 RES1   0.0000
  8241 C61     50.1051  47.4441  17.8348   C.2       1 RES1   0.0000
  8242 C62     47.9863  50.6473  17.8348   C.2       1 RES1   0.0000
  8243 C63     47.9863  47.4441   8.9174   C.2       1 RES1   0.0000
  8244 C64     50.1051  50.6473   8.9174   C.2       1 RES1   0.0000
  8245 C65     53.5044  50.1051  11.7745   C.2       1 RES1   0.0000
  8246 C66     53.5044  47.9863  14.9777   C.2       1 RES1   0.0000
  8247 C67     44.5870  47.9863  11.7745   C.2       1 RES1   0.0000
  8248 C68     44.5870  50.1051  14.9777   C.2       1 RES1   0.0000
  8249 C69     47.4441  53.5044  14.4355   C.2       1 RES1   0.0000
  8250 C70     50.6473  53.5044  12.3167   C.2       1 RES1   0.0000
  8251 C71     47.4441  44.5870  12.3167   C.2       1 RES1   0.0000
  8252 C72     50.6473  44.5870  14.4355   C.2       1 RES1   0.0000
  8253 C73     40.2478  40.7793   0.0018   C.2       1 RES1   0.0000
  8254 C74     40.0088  39.4773   0.0018   C.2       1 RES1   0.0000
  8255 C75     40.0088  40.7793   8.9156   C.2       1 RES1   0.0000
  8256 C76     40.2478  39.4773   8.9156   C.2       1 RES1   0.0000
  8257 C77     35.6714  40.2478   5.1097   C.2       1 RES1   0.0000
  8258 C78     35.6714  40.0088   3.8077   C.2       1 RES1   0.0000
  8259 C79     44.5852  40.0088   5.1097   C.2       1 RES1   0.0000
  8260 C80     44.5852  40.2478   3.8077   C.2       1 RES1   0.0000
  8261 C81     40.7793  35.6714   4.5782   C.2       1 RES1   0.0000
  8262 C82     39.4773  35.6714   4.3392   C.2       1 RES1   0.0000
  8263 C83     40.7793  44.5852   4.3392   C.2       1 RES1   0.0000
  8264 C84     39.4773  44.5852   4.5782   C.2       1 RES1   0.0000
  8265 C85     48.9262  48.3947  17.8330   C.2       1 RES1   0.0000
  8266 C86     49.1652  49.6967  17.8330   C.2       1 RES1   0.0000
  8267 C87     49.1652  48.3947   8.9192   C.2       1 RES1   0.0000
  8268 C88     48.9262  49.6967   8.9192   C.2       1 RES1   0.0000
  8269 C89     53.5026  48.9262  12.7251   C.2       1 RES1   0.0000
  8270 C90     53.5026  49.1652  14.0271   C.2       1 RES1   0.0000
  8271 C91     44.5888  49.1652  12.7251   C.2       1 RES1   0.0000
  8272 C92     44.5888  48.9262  14.0271   C.2       1 RES1   0.0000
  8273 C93     48.3947  53.5026  13.2566   C.2       1 RES1   0.0000
  8274 C94     49.6967  53.5026  13.4956   C.2       1 RES1   0.0000
  8275 C95     48.3947  44.5888  13.4956   C.2       1 RES1   0.0000
  8276 C96     49.6967  44.5888  13.2566   C.2       1 RES1   0.0000
  8277 H25     41.1199  41.1021   0.0018   H         1 RES1   0.0000
  8278 H26     39.1367  39.1545   0.0018   H         1 RES1   0.0000
  8279 H27     39.1367  41.1021   8.9156   H         1 RES1   0.0000
  8280 H28     41.1199  39.1545   8.9156   H         1 RES1   0.0000
  8281 H29     35.6714  41.1199   5.4325   H         1 RES1   0.0000
  8282 H30     35.6714  39.1367   3.4849   H         1 RES1   0.0000
  8283 H31     44.5852  39.1367   5.4325   H         1 RES1   0.0000
  8284 H32     44.5852  41.1199   3.4849   H         1 RES1   0.0000
  8285 H33     41.1021  35.6714   5.4503   H         1 RES1   0.0000
  8286 H34     39.1545  35.6714   3.4671   H         1 RES1   0.0000
  8287 H35     41.1021  44.5852   3.4671   H         1 RES1   0.0000
  8288 H36     39.1545  44.5852   5.4503   H         1 RES1   0.0000
  8289 H37     48.0541  48.0719  17.8330   H         1 RES1   0.0000
  8290 H38     50.0373  50.0195  17.8330   H         1 RES1   0.0000
  8291 H39     50.0373  48.0719   8.9192   H         1 RES1   0.0000
  8292 H40     48.0541  50.0195   8.9192   H         1 RES1   0.0000
  8293 H41     53.5026  48.0541  12.4023   H         1 RES1   0.0000
  8294 H42     53.5026  50.0373  14.3499   H         1 RES1   0.0000
  8295 H43     44.5888  50.0373  12.4023   H         1 RES1   0.0000
  8296 H44     44.5888  48.0541  14.3499   H         1 RES1   0.0000
  8297 H45     48.0719  53.5026  12.3845   H         1 RES1   0.0000
  8298 H46     50.0195  53.5026  14.3677   H         1 RES1   0.0000
  8299 H47     48.0719  44.5888  14.3677   H         1 RES1   0.0000
  8300 H48     50.0195  44.5888  12.3845   H         1 RES1   0.0000
  8301 O98     43.2226  51.8689  16.6809   O3        1 RES1   0.0000
  8302 O99     43.2226  46.2225  10.0713   O3        1 RES1   0.0000
  8303 O101    52.3505  37.0340  10.5529   O3        1 RES1   0.0000
  8304 O102    52.3505  43.2226  16.1993   O3        1 RES1   0.0000
  8305 O103    45.7409  43.2226  10.5529   O3        1 RES1   0.0000
  8306 O105    46.2225  52.3505   1.3644   O3        1 RES1   0.0000
  8307 O106    51.8689  52.3505   7.5530   O3        1 RES1   0.0000
  8308 O107    46.2225  45.7409   7.5530   O3        1 RES1   0.0000
  8309 O108    51.8689  45.7409   1.3644   O3        1 RES1   0.0000
  8310 O109    52.1400  42.9515   1.1539   O3        1 RES1   0.0000
  8311 O110    45.9514  37.3051   1.1539   O3        1 RES1   0.0000
  8312 O111    45.9514  42.9515   7.7635   O3        1 RES1   0.0000
  8313 O112    52.1400  37.3051   7.7635   O3        1 RES1   0.0000
  8314 O115    43.4331  45.9514   7.2819   O3        1 RES1   0.0000
  8315 O116    43.4331  52.1400   1.6355   O3        1 RES1   0.0000
  8316 O119    42.9515  43.4331  10.2818   O3        1 RES1   0.0000
  8317 O155    43.1870  43.1870   7.5174   O3        1 RES1   0.0000
  8318 O157    52.1044  45.9870  16.4348   O3        1 RES1   0.0000
  8319 O158    45.9870  52.1044  16.4348   O3        1 RES1   0.0000
  8320 O159    45.9870  45.9870  10.3174   O3        1 RES1   0.0000
  8321 O160    52.1044  52.1044  10.3174   O3        1 RES1   0.0000
  8322 Zr1     55.9629  44.7855   0.2119   Zr        1 RES1   0.0000
  8323 Zr2     42.1285  53.3059  18.0467   Zr        1 RES1   0.0000
  8324 Zr4     55.9629  53.3059   8.7055   Zr        1 RES1   0.0000
  8325 Zr5     35.8815  55.9629   9.1159   Zr        1 RES1   0.0000
  8326 Zr5     53.7163  38.1281   9.1159   Zr        1 RES1   0.0000
  8327 Zr6     53.7163  42.1285  -0.1985   Zr        1 RES1   0.0000
  8328 Zr6     53.7163  42.1285  17.6363   Zr        1 RES1   0.0000
  8329 Zr8     44.3751  55.9629  -0.1985   Zr        1 RES1   0.0000
  8330 Zr8     44.3751  55.9629  17.6363   Zr        1 RES1   0.0000
  8331 Zr9     44.7855  53.7163   2.4585   Zr        1 RES1   0.0000
  8332 Zr10    53.3059  53.7163   6.4589   Zr        1 RES1   0.0000
  8333 Zr12    53.3059  44.3751  20.2933   Zr        1 RES1   0.0000
  8334 Zr13    51.0459  44.3885  -0.2119   Zr        1 RES1   0.0000
  8335 Zr14    47.0455  53.7029  -0.2119   Zr        1 RES1   0.0000
  8336 Zr14    47.0455  53.7029  17.6229   Zr        1 RES1   0.0000
  8337 Zr16    51.0459  53.7029   9.1293   Zr        1 RES1   0.0000
  8338 Zr18    53.2925  47.0455  18.0333   Zr        1 RES1   0.0000
  8339 Zr20    44.7989  51.0459  18.0333   Zr        1 RES1   0.0000
  8340 Zr21    44.3885  53.2925  -2.4585   Zr        1 RES1   0.0000
  8341 Zr22    53.7029  53.2925  11.3759   Zr        1 RES1   0.0000
  8342 Zr24    53.7029  44.7989  -2.4585   Zr        1 RES1   0.0000
  8343 Zr24    53.7029  44.7989  15.3763   Zr        1 RES1   0.0000
  8344 O2      40.8595  55.1363   0.1427   O.2       1 RES1   0.0000
  8345 O4      39.3971  55.1363   8.7747   O.2       1 RES1   0.0000
  8346 O6      35.8123  40.8595  19.4667   Oco2      1 RES1   0.0000
  8347 O8      44.4443  39.3971  19.4667   Oco2      1 RES1   0.0000
  8348 O10     55.1363  35.8123   5.1899   O.2       1 RES1   0.0000
  8349 O12     55.1363  44.4443   3.7275   O.2       1 RES1   0.0000
  8350 O18     53.3617  48.3145  -1.6319   O.2       1 RES1   0.0000
  8351 O20     44.7297  49.7769  -1.6319   O.2       1 RES1   0.0000
  8352 O50     41.2055  53.3742   2.2525   O.2       1 RES1   0.0000
  8353 O52     39.0511  53.3742   6.6649   O.2       1 RES1   0.0000
  8354 O54     37.9221  41.2055  17.7046   Oco2      1 RES1   0.0000
  8355 O56     42.3345  39.0511  17.7046   Oco2      1 RES1   0.0000
  8356 O58     53.3742  37.9221   5.5359   O.2       1 RES1   0.0000
  8357 O60     53.3742  42.3345   3.3815   O.2       1 RES1   0.0000
  8358 O66     51.2519  47.9685   0.1302   O.2       1 RES1   0.0000
  8359 O68     46.8395  50.1229   0.1302   O.2       1 RES1   0.0000
  8360 O73     39.3935  45.0133  -1.6158   O.2       1 RES1   0.0000
  8361 O74     40.8631  53.0781  -1.6158   O.2       1 RES1   0.0000
  8362 O85     49.7805  44.1607  19.4506   Oco2      1 RES1   0.0000
  8363 O86     48.3109  36.0959  19.4506   Oco2      1 RES1   0.0000
  8364 O89     55.1202  49.7805   8.4911   O.2       1 RES1   0.0000
  8365 O90     55.1202  48.3109   0.4263   O.2       1 RES1   0.0000
  8366 O93     44.1607  55.1202  14.1109   O.2       1 RES1   0.0000
  8367 O94     36.0959  55.1202  12.6413   O.2       1 RES1   0.0000
  8368 O97     54.8688  46.2225  -1.1539   O3        1 RES1   0.0000
  8369 O98     43.2226  51.8689  -1.1539   O3        1 RES1   0.0000
  8370 O100    54.8688  51.8689  10.0713   O3        1 RES1   0.0000
  8371 O101    34.5157  54.8688  10.5529   O3        1 RES1   0.0000
  8372 O104    45.7409  54.8688  16.1993   O3        1 RES1   0.0000
  8373 O108    51.8689  45.7409  19.1992   O3        1 RES1   0.0000
  8374 O109    52.1400  42.9515  18.9887   O3        1 RES1   0.0000
  8375 O110    45.9514  37.3051  18.9887   O3        1 RES1   0.0000
  8376 O113    54.6583  52.1400   7.2819   O3        1 RES1   0.0000
  8377 O114    54.6583  45.9514   1.6355   O3        1 RES1   0.0000
  8378 O117    42.9515  54.6583  -1.3644   O3        1 RES1   0.0000
  8379 O117    42.9515  54.6583  16.4704   O3        1 RES1   0.0000
  8380 O118    37.3051  54.6583  10.2818   O3        1 RES1   0.0000
  8381 O120    37.3051  43.4331  -1.3644   O3        1 RES1   0.0000
  8382 O153    54.9044  43.1870   1.4000   O3        1 RES1   0.0000
  8383 O154    43.1870  54.9044   1.4000   O3        1 RES1   0.0000
  8384 O156    37.0696  54.9044   7.5174   O3        1 RES1   0.0000
  8385 O156    54.9044  37.0696   7.5174   O3        1 RES1   0.0000
  8386 O157    52.1044  45.9870  -1.4000   O3        1 RES1   0.0000
  8387 O158    45.9870  52.1044  -1.4000   O3        1 RES1   0.0000
  8388 Zr3     42.1285  44.7855  26.5403   Zr        1 RES1   0.0000
  8389 Zr7     44.3751  42.1285  26.9507   Zr        1 RES1   0.0000
  8390 Zr11    44.7855  44.3751  24.2937   Zr        1 RES1   0.0000
  8391 Zr13    51.0459  44.3885  35.4577   Zr        1 RES1   0.0000
  8392 Zr15    47.0455  44.3885  26.9641   Zr        1 RES1   0.0000
  8393 Zr17    53.2925  51.0459  26.5537   Zr        1 RES1   0.0000
  8394 Zr19    44.7989  47.0455  26.5537   Zr        1 RES1   0.0000
  8395 Zr21    44.3885  53.2925  33.2111   Zr        1 RES1   0.0000
  8396 Zr23    44.3885  44.7989  29.2107   Zr        1 RES1   0.0000
  8397 O1      39.3971  42.9551  17.9775   Oco2      1 RES1   0.0000
  8398 O3      40.8595  42.9551  26.6095   Oco2      1 RES1   0.0000
  8399 O5      35.8123  39.3971  25.1203   Oco2      1 RES1   0.0000
  8400 O7      44.4443  40.8595  25.1203   Oco2      1 RES1   0.0000
  8401 O9      42.9551  35.8123  21.5623   Oco2      1 RES1   0.0000
  8402 O11     42.9551  44.4443  23.0247   Oco2      1 RES1   0.0000
  8403 O13     49.7769  46.2189  35.5269   Oco2      1 RES1   0.0000
  8404 O14     48.3145  51.8725  35.5269   Oco2      1 RES1   0.0000
  8405 O15     48.3145  46.2189  26.8949   Oco2      1 RES1   0.0000
  8406 O16     49.7769  51.8725  26.8949   Oco2      1 RES1   0.0000
  8407 O17     53.3617  49.7769  28.3841   Oco2      1 RES1   0.0000
  8408 O18     53.3617  48.3145  34.0377   Oco2      1 RES1   0.0000
  8409 O19     44.7297  48.3145  28.3841   Oco2      1 RES1   0.0000
  8410 O20     44.7297  49.7769  34.0377   Oco2      1 RES1   0.0000
  8411 O21     46.2189  53.3617  31.9421   Oco2      1 RES1   0.0000
  8412 O22     51.8725  53.3617  30.4797   Oco2      1 RES1   0.0000
  8413 O23     46.2189  44.7297  30.4797   Oco2      1 RES1   0.0000
  8414 O24     51.8725  44.7297  31.9421   Oco2      1 RES1   0.0000
  8415 O25     39.0653  46.8092  18.2735   Oco2      1 RES1   0.0000
  8416 O26     41.1913  51.2822  18.2735   Oco2      1 RES1   0.0000
  8417 O27     41.1913  46.8092  26.3135   Oco2      1 RES1   0.0000
  8418 O28     39.0653  51.2822  26.3135   Oco2      1 RES1   0.0000
  8419 O29     36.1083  39.0653  28.9744   Oco2      1 RES1   0.0000
  8420 O30     36.1083  41.1913  33.4474   Oco2      1 RES1   0.0000
  8421 O31     44.1483  41.1913  28.9744   Oco2      1 RES1   0.0000
  8422 O32     44.1483  39.0653  33.4474   Oco2      1 RES1   0.0000
  8423 O33     46.8092  36.1083  21.2305   Oco2      1 RES1   0.0000
  8424 O34     51.2822  36.1083  23.3565   Oco2      1 RES1   0.0000
  8425 O35     46.8092  44.1483  23.3565   Oco2      1 RES1   0.0000
  8426 O36     51.2822  44.1483  21.2305   Oco2      1 RES1   0.0000
  8427 O37     50.1087  42.3648  35.2309   Oco2      1 RES1   0.0000
  8428 O38     47.9827  37.8918  35.2309   Oco2      1 RES1   0.0000
  8429 O39     47.9827  42.3648  27.1909   Oco2      1 RES1   0.0000
  8430 O40     50.1087  37.8918  27.1909   Oco2      1 RES1   0.0000
  8431 O41     53.0657  50.1087  24.5300   Oco2      1 RES1   0.0000
  8432 O42     53.0657  47.9827  20.0570   Oco2      1 RES1   0.0000
  8433 O43     45.0257  47.9827  24.5300   Oco2      1 RES1   0.0000
  8434 O44     45.0257  50.1087  20.0570   Oco2      1 RES1   0.0000
  8435 O45     42.3648  53.0657  32.2739   Oco2      1 RES1   0.0000
  8436 O46     37.8918  53.0657  30.1479   Oco2      1 RES1   0.0000
  8437 O47     42.3648  45.0257  30.1479   Oco2      1 RES1   0.0000
  8438 O48     37.8918  45.0257  32.2739   Oco2      1 RES1   0.0000
  8439 O49     39.0511  44.7172  20.0873   Oco2      1 RES1   0.0000
  8440 O51     41.2055  44.7172  24.4997   Oco2      1 RES1   0.0000
  8441 O53     37.9221  39.0511  26.8824   Oco2      1 RES1   0.0000
  8442 O55     42.3345  41.2055  26.8824   Oco2      1 RES1   0.0000
  8443 O57     44.7172  37.9221  21.2163   Oco2      1 RES1   0.0000
  8444 O59     44.7172  42.3345  23.3707   Oco2      1 RES1   0.0000
  8445 O61     50.1229  44.4568  33.4171   Oco2      1 RES1   0.0000
  8446 O62     47.9685  53.6346  33.4171   Oco2      1 RES1   0.0000
  8447 O63     47.9685  44.4568  29.0047   Oco2      1 RES1   0.0000
  8448 O64     50.1229  53.6346  29.0047   Oco2      1 RES1   0.0000
  8449 O65     51.2519  50.1229  26.6220   Oco2      1 RES1   0.0000
  8450 O66     51.2519  47.9685  35.7998   Oco2      1 RES1   0.0000
  8451 O67     46.8395  47.9685  26.6220   Oco2      1 RES1   0.0000
  8452 O68     46.8395  50.1229  35.7998   Oco2      1 RES1   0.0000
  8453 O69     44.4568  51.2519  32.2881   Oco2      1 RES1   0.0000
  8454 O70     53.6346  51.2519  30.1337   Oco2      1 RES1   0.0000
  8455 O71     44.4568  46.8395  30.1337   Oco2      1 RES1   0.0000
  8456 O72     53.6346  46.8395  32.2881   Oco2      1 RES1   0.0000
  8457 O73     39.3935  45.0133  34.0538   Oco2      1 RES1   0.0000
  8458 O74     40.8631  53.0781  34.0538   Oco2      1 RES1   0.0000
  8459 O75     40.8631  45.0133  28.3680   Oco2      1 RES1   0.0000
  8460 O76     39.3935  53.0781  28.3680   Oco2      1 RES1   0.0000
  8461 O77     51.8886  39.3935  27.1785   Oco2      1 RES1   0.0000
  8462 O78     51.8886  40.8631  35.2433   Oco2      1 RES1   0.0000
  8463 O79     46.2028  40.8631  27.1785   Oco2      1 RES1   0.0000
  8464 O80     46.2028  39.3935  35.2433   Oco2      1 RES1   0.0000
  8465 O81     45.0133  51.8886  21.5587   Oco2      1 RES1   0.0000
  8466 O82     53.0781  51.8886  23.0283   Oco2      1 RES1   0.0000
  8467 O83     45.0133  46.2028  23.0283   Oco2      1 RES1   0.0000
  8468 O84     53.0781  46.2028  21.5587   Oco2      1 RES1   0.0000
  8469 O87     48.3109  44.1607  25.1364   Oco2      1 RES1   0.0000
  8470 O88     49.7805  36.0959  25.1364   Oco2      1 RES1   0.0000
  8471 O91     42.9712  48.3109  26.3259   Oco2      1 RES1   0.0000
  8472 O92     42.9712  49.7805  18.2611   Oco2      1 RES1   0.0000
  8473 O95     44.1607  42.9712  30.4761   Oco2      1 RES1   0.0000
  8474 O96     36.0959  42.9712  31.9457   Oco2      1 RES1   0.0000
  8475 C1      38.5303  47.9596  18.2628   C.2       1 RES1   0.0000
  8476 C2      41.7263  50.1318  18.2628   C.2       1 RES1   0.0000
  8477 C3      41.7263  47.9596  26.3242   C.2       1 RES1   0.0000
  8478 C4      38.5303  50.1318  26.3242   C.2       1 RES1   0.0000
  8479 C5      36.0976  38.5303  30.1248   C.2       1 RES1   0.0000
  8480 C6      36.0976  41.7263  32.2970   C.2       1 RES1   0.0000
  8481 C7      44.1590  41.7263  30.1248   C.2       1 RES1   0.0000
  8482 C8      44.1590  38.5303  32.2970   C.2       1 RES1   0.0000
  8483 C9      47.9596  36.0976  20.6955   C.2       1 RES1   0.0000
  8484 C10     50.1318  36.0976  23.8915   C.2       1 RES1   0.0000
  8485 C11     47.9596  44.1590  23.8915   C.2       1 RES1   0.0000
  8486 C12     50.1318  44.1590  20.6955   C.2       1 RES1   0.0000
  8487 C13     50.6437  41.2144  35.2416   C.2       1 RES1   0.0000
  8488 C14     47.4477  39.0422  35.2416   C.2       1 RES1   0.0000
  8489 C15     47.4477  41.2144  27.1802   C.2       1 RES1   0.0000
  8490 C16     50.6437  39.0422  27.1802   C.2       1 RES1   0.0000
  8491 C17     53.0764  50.6437  23.3796   C.2       1 RES1   0.0000
  8492 C18     53.0764  47.4477  21.2074   C.2       1 RES1   0.0000
  8493 C19     45.0150  47.4477  23.3796   C.2       1 RES1   0.0000
  8494 C20     45.0150  50.6437  21.2074   C.2       1 RES1   0.0000
  8495 C21     41.2144  53.0764  32.8089   C.2       1 RES1   0.0000
  8496 C22     39.0422  53.0764  29.6129   C.2       1 RES1   0.0000
  8497 C23     41.2144  45.0150  29.6129   C.2       1 RES1   0.0000
  8498 C24     39.0422  45.0150  32.8089   C.2       1 RES1   0.0000
  8499 C25     39.4898  49.1438  18.2682   C.2       1 RES1   0.0000
  8500 C26     40.7668  48.9476  18.2682   C.2       1 RES1   0.0000
  8501 C27     40.7668  49.1438  26.3188   C.2       1 RES1   0.0000
  8502 C28     39.4898  48.9476  26.3188   C.2       1 RES1   0.0000
  8503 C29     36.1030  39.4898  31.3090   C.2       1 RES1   0.0000
  8504 C30     36.1030  40.7668  31.1128   C.2       1 RES1   0.0000
  8505 C31     44.1536  40.7668  31.3090   C.2       1 RES1   0.0000
  8506 C32     44.1536  39.4898  31.1128   C.2       1 RES1   0.0000
  8507 C33     49.1438  36.1030  21.6550   C.2       1 RES1   0.0000
  8508 C34     48.9476  36.1030  22.9320   C.2       1 RES1   0.0000
  8509 C35     49.1438  44.1536  22.9320   C.2       1 RES1   0.0000
  8510 C36     48.9476  44.1536  21.6550   C.2       1 RES1   0.0000
  8511 C37     49.6842  40.0302  35.2362   C.2       1 RES1   0.0000
  8512 C38     48.4072  40.2264  35.2362   C.2       1 RES1   0.0000
  8513 C39     48.4072  40.0302  27.1856   C.2       1 RES1   0.0000
  8514 C40     49.6842  40.2264  27.1856   C.2       1 RES1   0.0000
  8515 C41     53.0710  49.6842  22.1954   C.2       1 RES1   0.0000
  8516 C42     53.0710  48.4072  22.3916   C.2       1 RES1   0.0000
  8517 C43     45.0204  48.4072  22.1954   C.2       1 RES1   0.0000
  8518 C44     45.0204  49.6842  22.3916   C.2       1 RES1   0.0000
  8519 C45     40.0302  53.0710  31.8494   C.2       1 RES1   0.0000
  8520 C46     40.2264  53.0710  30.5724   C.2       1 RES1   0.0000
  8521 C47     40.0302  45.0204  30.5724   C.2       1 RES1   0.0000
  8522 C48     40.2264  45.0204  31.8494   C.2       1 RES1   0.0000
  8523 H1      39.1563  50.0123  18.2700   H         1 RES1   0.0000
  8524 H2      41.1003  48.0791  18.2700   H         1 RES1   0.0000
  8525 H3      41.1003  50.0123  26.3170   H         1 RES1   0.0000
  8526 H4      39.1563  48.0791  26.3170   H         1 RES1   0.0000
  8527 H5      36.1048  39.1563  32.1775   H         1 RES1   0.0000
  8528 H6      36.1048  41.1003  30.2443   H         1 RES1   0.0000
  8529 H7      44.1518  41.1003  32.1775   H         1 RES1   0.0000
  8530 H8      44.1518  39.1563  30.2443   H         1 RES1   0.0000
  8531 H9      50.0123  36.1048  21.3215   H         1 RES1   0.0000
  8532 H10     48.0791  36.1048  23.2655   H         1 RES1   0.0000
  8533 H11     50.0123  44.1518  23.2655   H         1 RES1   0.0000
  8534 H12     48.0791  44.1518  21.3215   H         1 RES1   0.0000
  8535 H13     50.0177  39.1617  35.2344   H         1 RES1   0.0000
  8536 H14     48.0737  41.0949  35.2344   H         1 RES1   0.0000
  8537 H15     48.0737  39.1617  27.1874   H         1 RES1   0.0000
  8538 H16     50.0177  41.0949  27.1874   H         1 RES1   0.0000
  8539 H17     53.0692  50.0177  21.3269   H         1 RES1   0.0000
  8540 H18     53.0692  48.0737  23.2601   H         1 RES1   0.0000
  8541 H19     45.0222  48.0737  21.3269   H         1 RES1   0.0000
  8542 H20     45.0222  50.0177  23.2601   H         1 RES1   0.0000
  8543 H21     39.1617  53.0692  32.1829   H         1 RES1   0.0000
  8544 H22     41.0949  53.0692  30.2389   H         1 RES1   0.0000
  8545 H23     39.1617  45.0222  30.2389   H         1 RES1   0.0000
  8546 H24     41.0949  45.0222  32.1829   H         1 RES1   0.0000
  8547 C49     39.0689  41.7299  17.8348   C.2       1 RES1   0.0000
  8548 C50     41.1877  38.5267  17.8348   C.2       1 RES1   0.0000
  8549 C51     41.1877  41.7299  26.7522   C.2       1 RES1   0.0000
  8550 C52     39.0689  38.5267  26.7522   C.2       1 RES1   0.0000
  8551 C53     35.6696  39.0689  23.8951   C.2       1 RES1   0.0000
  8552 C54     35.6696  41.1877  20.6919   C.2       1 RES1   0.0000
  8553 C55     44.5870  41.1877  23.8951   C.2       1 RES1   0.0000
  8554 C56     44.5870  39.0689  20.6919   C.2       1 RES1   0.0000
  8555 C57     41.7299  35.6696  21.2341   C.2       1 RES1   0.0000
  8556 C58     38.5267  35.6696  23.3529   C.2       1 RES1   0.0000
  8557 C59     41.7299  44.5870  23.3529   C.2       1 RES1   0.0000
  8558 C60     38.5267  44.5870  21.2341   C.2       1 RES1   0.0000
  8559 C61     50.1051  47.4441  35.6696   C.2       1 RES1   0.0000
  8560 C62     47.9863  50.6473  35.6696   C.2       1 RES1   0.0000
  8561 C63     47.9863  47.4441  26.7522   C.2       1 RES1   0.0000
  8562 C64     50.1051  50.6473  26.7522   C.2       1 RES1   0.0000
  8563 C65     53.5044  50.1051  29.6093   C.2       1 RES1   0.0000
  8564 C66     53.5044  47.9863  32.8125   C.2       1 RES1   0.0000
  8565 C67     44.5870  47.9863  29.6093   C.2       1 RES1   0.0000
  8566 C68     44.5870  50.1051  32.8125   C.2       1 RES1   0.0000
  8567 C69     47.4441  53.5044  32.2703   C.2       1 RES1   0.0000
  8568 C70     50.6473  53.5044  30.1515   C.2       1 RES1   0.0000
  8569 C71     47.4441  44.5870  30.1515   C.2       1 RES1   0.0000
  8570 C72     50.6473  44.5870  32.2703   C.2       1 RES1   0.0000
  8571 C73     40.2478  40.7793  17.8366   C.2       1 RES1   0.0000
  8572 C74     40.0088  39.4773  17.8366   C.2       1 RES1   0.0000
  8573 C75     40.0088  40.7793  26.7504   C.2       1 RES1   0.0000
  8574 C76     40.2478  39.4773  26.7504   C.2       1 RES1   0.0000
  8575 C77     35.6714  40.2478  22.9445   C.2       1 RES1   0.0000
  8576 C78     35.6714  40.0088  21.6425   C.2       1 RES1   0.0000
  8577 C79     44.5852  40.0088  22.9445   C.2       1 RES1   0.0000
  8578 C80     44.5852  40.2478  21.6425   C.2       1 RES1   0.0000
  8579 C81     40.7793  35.6714  22.4130   C.2       1 RES1   0.0000
  8580 C82     39.4773  35.6714  22.1740   C.2       1 RES1   0.0000
  8581 C83     40.7793  44.5852  22.1740   C.2       1 RES1   0.0000
  8582 C84     39.4773  44.5852  22.4130   C.2       1 RES1   0.0000
  8583 C85     48.9262  48.3947  35.6678   C.2       1 RES1   0.0000
  8584 C86     49.1652  49.6967  35.6678   C.2       1 RES1   0.0000
  8585 C87     49.1652  48.3947  26.7540   C.2       1 RES1   0.0000
  8586 C88     48.9262  49.6967  26.7540   C.2       1 RES1   0.0000
  8587 C89     53.5026  48.9262  30.5599   C.2       1 RES1   0.0000
  8588 C90     53.5026  49.1652  31.8619   C.2       1 RES1   0.0000
  8589 C91     44.5888  49.1652  30.5599   C.2       1 RES1   0.0000
  8590 C92     44.5888  48.9262  31.8619   C.2       1 RES1   0.0000
  8591 C93     48.3947  53.5026  31.0914   C.2       1 RES1   0.0000
  8592 C94     49.6967  53.5026  31.3304   C.2       1 RES1   0.0000
  8593 C95     48.3947  44.5888  31.3304   C.2       1 RES1   0.0000
  8594 C96     49.6967  44.5888  31.0914   C.2       1 RES1   0.0000
  8595 H25     41.1199  41.1021  17.8366   H         1 RES1   0.0000
  8596 H26     39.1367  39.1545  17.8366   H         1 RES1   0.0000
  8597 H27     39.1367  41.1021  26.7504   H         1 RES1   0.0000
  8598 H28     41.1199  39.1545  26.7504   H         1 RES1   0.0000
  8599 H29     35.6714  41.1199  23.2673   H         1 RES1   0.0000
  8600 H30     35.6714  39.1367  21.3197   H         1 RES1   0.0000
  8601 H31     44.5852  39.1367  23.2673   H         1 RES1   0.0000
  8602 H32     44.5852  41.1199  21.3197   H         1 RES1   0.0000
  8603 H33     41.1021  35.6714  23.2851   H         1 RES1   0.0000
  8604 H34     39.1545  35.6714  21.3019   H         1 RES1   0.0000
  8605 H35     41.1021  44.5852  21.3019   H         1 RES1   0.0000
  8606 H36     39.1545  44.5852  23.2851   H         1 RES1   0.0000
  8607 H37     48.0541  48.0719  35.6678   H         1 RES1   0.0000
  8608 H38     50.0373  50.0195  35.6678   H         1 RES1   0.0000
  8609 H39     50.0373  48.0719  26.7540   H         1 RES1   0.0000
  8610 H40     48.0541  50.0195  26.7540   H         1 RES1   0.0000
  8611 H41     53.5026  48.0541  30.2371   H         1 RES1   0.0000
  8612 H42     53.5026  50.0373  32.1847   H         1 RES1   0.0000
  8613 H43     44.5888  50.0373  30.2371   H         1 RES1   0.0000
  8614 H44     44.5888  48.0541  32.1847   H         1 RES1   0.0000
  8615 H45     48.0719  53.5026  30.2193   H         1 RES1   0.0000
  8616 H46     50.0195  53.5026  32.2025   H         1 RES1   0.0000
  8617 H47     48.0719  44.5888  32.2025   H         1 RES1   0.0000
  8618 H48     50.0195  44.5888  30.2193   H         1 RES1   0.0000
  8619 O98     43.2226  51.8689  34.5157   O3        1 RES1   0.0000
  8620 O99     43.2226  46.2225  27.9061   O3        1 RES1   0.0000
  8621 O101    52.3505  37.0340  28.3877   O3        1 RES1   0.0000
  8622 O102    52.3505  43.2226  34.0341   O3        1 RES1   0.0000
  8623 O103    45.7409  43.2226  28.3877   O3        1 RES1   0.0000
  8624 O105    46.2225  52.3505  19.1992   O3        1 RES1   0.0000
  8625 O106    51.8689  52.3505  25.3878   O3        1 RES1   0.0000
  8626 O107    46.2225  45.7409  25.3878   O3        1 RES1   0.0000
  8627 O111    45.9514  42.9515  25.5983   O3        1 RES1   0.0000
  8628 O112    52.1400  37.3051  25.5983   O3        1 RES1   0.0000
  8629 O115    43.4331  45.9514  25.1167   O3        1 RES1   0.0000
  8630 O116    43.4331  52.1400  19.4703   O3        1 RES1   0.0000
  8631 O119    42.9515  43.4331  28.1166   O3        1 RES1   0.0000
  8632 O155    43.1870  43.1870  25.3522   O3        1 RES1   0.0000
  8633 O157    52.1044  45.9870  34.2696   O3        1 RES1   0.0000
  8634 O158    45.9870  52.1044  34.2696   O3        1 RES1   0.0000
  8635 O159    45.9870  45.9870  28.1522   O3        1 RES1   0.0000
  8636 O160    52.1044  52.1044  28.1522   O3        1 RES1   0.0000
  8637 Zr1     55.9629  44.7855  18.0467   Zr        1 RES1   0.0000
  8638 Zr2     42.1285  53.3059  35.8815   Zr        1 RES1   0.0000
  8639 Zr4     55.9629  53.3059  26.5403   Zr        1 RES1   0.0000
  8640 Zr5     35.8815  55.9629  26.9507   Zr        1 RES1   0.0000
  8641 Zr5     53.7163  38.1281  26.9507   Zr        1 RES1   0.0000
  8642 Zr6     53.7163  42.1285  35.4711   Zr        1 RES1   0.0000
  8643 Zr8     44.3751  55.9629  35.4711   Zr        1 RES1   0.0000
  8644 Zr9     44.7855  53.7163  20.2933   Zr        1 RES1   0.0000
  8645 Zr10    53.3059  53.7163  24.2937   Zr        1 RES1   0.0000
  8646 Zr12    53.3059  44.3751  38.1281   Zr        1 RES1   0.0000
  8647 Zr14    47.0455  53.7029  35.4577   Zr        1 RES1   0.0000
  8648 Zr16    51.0459  53.7029  26.9641   Zr        1 RES1   0.0000
  8649 Zr18    53.2925  47.0455  35.8681   Zr        1 RES1   0.0000
  8650 Zr20    44.7989  51.0459  35.8681   Zr        1 RES1   0.0000
  8651 Zr22    53.7029  53.2925  29.2107   Zr        1 RES1   0.0000
  8652 Zr24    53.7029  44.7989  33.2111   Zr        1 RES1   0.0000
  8653 O2      40.8595  55.1363  17.9775   O.2       1 RES1   0.0000
  8654 O4      39.3971  55.1363  26.6095   O.2       1 RES1   0.0000
  8655 O6      35.8123  40.8595  37.3015   Oco2      1 RES1   0.0000
  8656 O8      44.4443  39.3971  37.3015   Oco2      1 RES1   0.0000
  8657 O10     55.1363  35.8123  23.0247   O.2       1 RES1   0.0000
  8658 O12     55.1363  44.4443  21.5623   O.2       1 RES1   0.0000
  8659 O50     41.2055  53.3742  20.0873   O.2       1 RES1   0.0000
  8660 O52     39.0511  53.3742  24.4997   O.2       1 RES1   0.0000
  8661 O54     37.9221  41.2055  35.5394   Oco2      1 RES1   0.0000
  8662 O56     42.3345  39.0511  35.5394   Oco2      1 RES1   0.0000
  8663 O58     53.3742  37.9221  23.3707   O.2       1 RES1   0.0000
  8664 O60     53.3742  42.3345  21.2163   O.2       1 RES1   0.0000
  8665 O85     49.7805  44.1607  37.2854   Oco2      1 RES1   0.0000
  8666 O86     48.3109  36.0959  37.2854   Oco2      1 RES1   0.0000
  8667 O89     55.1202  49.7805  26.3259   O.2       1 RES1   0.0000
  8668 O90     55.1202  48.3109  18.2611   O.2       1 RES1   0.0000
  8669 O93     44.1607  55.1202  31.9457   O.2       1 RES1   0.0000
  8670 O94     36.0959  55.1202  30.4761   O.2       1 RES1   0.0000
  8671 O97     54.8688  46.2225  16.6809   O3        1 RES1   0.0000
  8672 O100    54.8688  51.8689  27.9061   O3        1 RES1   0.0000
  8673 O101    34.5157  54.8688  28.3877   O3        1 RES1   0.0000
  8674 O104    45.7409  54.8688  34.0341   O3        1 RES1   0.0000
  8675 O108    51.8689  45.7409  37.0340   O3        1 RES1   0.0000
  8676 O109    52.1400  42.9515  36.8235   O3        1 RES1   0.0000
  8677 O110    45.9514  37.3051  36.8235   O3        1 RES1   0.0000
  8678 O113    54.6583  52.1400  25.1167   O3        1 RES1   0.0000
  8679 O114    54.6583  45.9514  19.4703   O3        1 RES1   0.0000
  8680 O117    42.9515  54.6583  34.3052   O3        1 RES1   0.0000
  8681 O118    37.3051  54.6583  28.1166   O3        1 RES1   0.0000
  8682 O120    37.3051  43.4331  16.4704   O3        1 RES1   0.0000
  8683 O153    54.9044  43.1870  19.2348   O3        1 RES1   0.0000
  8684 O154    43.1870  54.9044  19.2348   O3        1 RES1   0.0000
  8685 O156    37.0696  54.9044  25.3522   O3        1 RES1   0.0000
  8686 O156    54.9044  37.0696  25.3522   O3        1 RES1   0.0000
  8687 Zr3     42.1285  44.7855  44.3751   Zr        1 RES1   0.0000
  8688 Zr7     44.3751  42.1285  44.7855   Zr        1 RES1   0.0000
  8689 Zr11    44.7855  44.3751  42.1285   Zr        1 RES1   0.0000
  8690 Zr13    51.0459  44.3885  53.2925   Zr        1 RES1   0.0000
  8691 Zr15    47.0455  44.3885  44.7989   Zr        1 RES1   0.0000
  8692 Zr17    53.2925  51.0459  44.3885   Zr        1 RES1   0.0000
  8693 Zr19    44.7989  47.0455  44.3885   Zr        1 RES1   0.0000
  8694 Zr21    44.3885  53.2925  51.0459   Zr        1 RES1   0.0000
  8695 Zr23    44.3885  44.7989  47.0455   Zr        1 RES1   0.0000
  8696 O1      39.3971  42.9551  35.8123   Oco2      1 RES1   0.0000
  8697 O3      40.8595  42.9551  44.4443   Oco2      1 RES1   0.0000
  8698 O5      35.8123  39.3971  42.9551   Oco2      1 RES1   0.0000
  8699 O7      44.4443  40.8595  42.9551   Oco2      1 RES1   0.0000
  8700 O9      42.9551  35.8123  39.3971   Oco2      1 RES1   0.0000
  8701 O11     42.9551  44.4443  40.8595   Oco2      1 RES1   0.0000
  8702 O13     49.7769  46.2189  53.3617   Oco2      1 RES1   0.0000
  8703 O14     48.3145  51.8725  53.3617   Oco2      1 RES1   0.0000
  8704 O15     48.3145  46.2189  44.7297   Oco2      1 RES1   0.0000
  8705 O16     49.7769  51.8725  44.7297   Oco2      1 RES1   0.0000
  8706 O17     53.3617  49.7769  46.2189   Oco2      1 RES1   0.0000
  8707 O18     53.3617  48.3145  51.8725   Oco2      1 RES1   0.0000
  8708 O19     44.7297  48.3145  46.2189   Oco2      1 RES1   0.0000
  8709 O20     44.7297  49.7769  51.8725   Oco2      1 RES1   0.0000
  8710 O21     46.2189  53.3617  49.7769   Oco2      1 RES1   0.0000
  8711 O22     51.8725  53.3617  48.3145   Oco2      1 RES1   0.0000
  8712 O23     46.2189  44.7297  48.3145   Oco2      1 RES1   0.0000
  8713 O24     51.8725  44.7297  49.7769   Oco2      1 RES1   0.0000
  8714 O25     39.0653  46.8092  36.1083   Oco2      1 RES1   0.0000
  8715 O26     41.1913  51.2822  36.1083   Oco2      1 RES1   0.0000
  8716 O27     41.1913  46.8092  44.1483   Oco2      1 RES1   0.0000
  8717 O28     39.0653  51.2822  44.1483   Oco2      1 RES1   0.0000
  8718 O29     36.1083  39.0653  46.8092   Oco2      1 RES1   0.0000
  8719 O30     36.1083  41.1913  51.2822   Oco2      1 RES1   0.0000
  8720 O31     44.1483  41.1913  46.8092   Oco2      1 RES1   0.0000
  8721 O32     44.1483  39.0653  51.2822   Oco2      1 RES1   0.0000
  8722 O33     46.8092  36.1083  39.0653   Oco2      1 RES1   0.0000
  8723 O34     51.2822  36.1083  41.1913   Oco2      1 RES1   0.0000
  8724 O35     46.8092  44.1483  41.1913   Oco2      1 RES1   0.0000
  8725 O36     51.2822  44.1483  39.0653   Oco2      1 RES1   0.0000
  8726 O37     50.1087  42.3648  53.0657   Oco2      1 RES1   0.0000
  8727 O38     47.9827  37.8918  53.0657   Oco2      1 RES1   0.0000
  8728 O39     47.9827  42.3648  45.0257   Oco2      1 RES1   0.0000
  8729 O40     50.1087  37.8918  45.0257   Oco2      1 RES1   0.0000
  8730 O41     53.0657  50.1087  42.3648   Oco2      1 RES1   0.0000
  8731 O42     53.0657  47.9827  37.8918   Oco2      1 RES1   0.0000
  8732 O43     45.0257  47.9827  42.3648   Oco2      1 RES1   0.0000
  8733 O44     45.0257  50.1087  37.8918   Oco2      1 RES1   0.0000
  8734 O45     42.3648  53.0657  50.1087   Oco2      1 RES1   0.0000
  8735 O46     37.8918  53.0657  47.9827   Oco2      1 RES1   0.0000
  8736 O47     42.3648  45.0257  47.9827   Oco2      1 RES1   0.0000
  8737 O48     37.8918  45.0257  50.1087   Oco2      1 RES1   0.0000
  8738 O49     39.0511  44.7172  37.9221   Oco2      1 RES1   0.0000
  8739 O51     41.2055  44.7172  42.3345   Oco2      1 RES1   0.0000
  8740 O53     37.9221  39.0511  44.7172   Oco2      1 RES1   0.0000
  8741 O55     42.3345  41.2055  44.7172   Oco2      1 RES1   0.0000
  8742 O57     44.7172  37.9221  39.0511   Oco2      1 RES1   0.0000
  8743 O59     44.7172  42.3345  41.2055   Oco2      1 RES1   0.0000
  8744 O61     50.1229  44.4568  51.2519   Oco2      1 RES1   0.0000
  8745 O62     47.9685  53.6346  51.2519   Oco2      1 RES1   0.0000
  8746 O63     47.9685  44.4568  46.8395   Oco2      1 RES1   0.0000
  8747 O64     50.1229  53.6346  46.8395   Oco2      1 RES1   0.0000
  8748 O65     51.2519  50.1229  44.4568   Oco2      1 RES1   0.0000
  8749 O66     51.2519  47.9685  53.6346   Oco2      1 RES1   0.0000
  8750 O67     46.8395  47.9685  44.4568   Oco2      1 RES1   0.0000
  8751 O68     46.8395  50.1229  53.6346   Oco2      1 RES1   0.0000
  8752 O69     44.4568  51.2519  50.1229   Oco2      1 RES1   0.0000
  8753 O70     53.6346  51.2519  47.9685   Oco2      1 RES1   0.0000
  8754 O71     44.4568  46.8395  47.9685   Oco2      1 RES1   0.0000
  8755 O72     53.6346  46.8395  50.1229   Oco2      1 RES1   0.0000
  8756 O73     39.3935  45.0133  51.8886   Oco2      1 RES1   0.0000
  8757 O74     40.8631  53.0781  51.8886   Oco2      1 RES1   0.0000
  8758 O75     40.8631  45.0133  46.2028   Oco2      1 RES1   0.0000
  8759 O76     39.3935  53.0781  46.2028   Oco2      1 RES1   0.0000
  8760 O77     51.8886  39.3935  45.0133   Oco2      1 RES1   0.0000
  8761 O78     51.8886  40.8631  53.0781   Oco2      1 RES1   0.0000
  8762 O79     46.2028  40.8631  45.0133   Oco2      1 RES1   0.0000
  8763 O80     46.2028  39.3935  53.0781   Oco2      1 RES1   0.0000
  8764 O81     45.0133  51.8886  39.3935   Oco2      1 RES1   0.0000
  8765 O82     53.0781  51.8886  40.8631   Oco2      1 RES1   0.0000
  8766 O83     45.0133  46.2028  40.8631   Oco2      1 RES1   0.0000
  8767 O84     53.0781  46.2028  39.3935   Oco2      1 RES1   0.0000
  8768 O87     48.3109  44.1607  42.9712   Oco2      1 RES1   0.0000
  8769 O88     49.7805  36.0959  42.9712   Oco2      1 RES1   0.0000
  8770 O91     42.9712  48.3109  44.1607   Oco2      1 RES1   0.0000
  8771 O92     42.9712  49.7805  36.0959   Oco2      1 RES1   0.0000
  8772 O95     44.1607  42.9712  48.3109   Oco2      1 RES1   0.0000
  8773 O96     36.0959  42.9712  49.7805   Oco2      1 RES1   0.0000
  8774 C1      38.5303  47.9596  36.0976   C.2       1 RES1   0.0000
  8775 C2      41.7263  50.1318  36.0976   C.2       1 RES1   0.0000
  8776 C3      41.7263  47.9596  44.1590   C.2       1 RES1   0.0000
  8777 C4      38.5303  50.1318  44.1590   C.2       1 RES1   0.0000
  8778 C5      36.0976  38.5303  47.9596   C.2       1 RES1   0.0000
  8779 C6      36.0976  41.7263  50.1318   C.2       1 RES1   0.0000
  8780 C7      44.1590  41.7263  47.9596   C.2       1 RES1   0.0000
  8781 C8      44.1590  38.5303  50.1318   C.2       1 RES1   0.0000
  8782 C9      47.9596  36.0976  38.5303   C.2       1 RES1   0.0000
  8783 C10     50.1318  36.0976  41.7263   C.2       1 RES1   0.0000
  8784 C11     47.9596  44.1590  41.7263   C.2       1 RES1   0.0000
  8785 C12     50.1318  44.1590  38.5303   C.2       1 RES1   0.0000
  8786 C13     50.6437  41.2144  53.0764   C.2       1 RES1   0.0000
  8787 C14     47.4477  39.0422  53.0764   C.2       1 RES1   0.0000
  8788 C15     47.4477  41.2144  45.0150   C.2       1 RES1   0.0000
  8789 C16     50.6437  39.0422  45.0150   C.2       1 RES1   0.0000
  8790 C17     53.0764  50.6437  41.2144   C.2       1 RES1   0.0000
  8791 C18     53.0764  47.4477  39.0422   C.2       1 RES1   0.0000
  8792 C19     45.0150  47.4477  41.2144   C.2       1 RES1   0.0000
  8793 C20     45.0150  50.6437  39.0422   C.2       1 RES1   0.0000
  8794 C21     41.2144  53.0764  50.6437   C.2       1 RES1   0.0000
  8795 C22     39.0422  53.0764  47.4477   C.2       1 RES1   0.0000
  8796 C23     41.2144  45.0150  47.4477   C.2       1 RES1   0.0000
  8797 C24     39.0422  45.0150  50.6437   C.2       1 RES1   0.0000
  8798 C25     39.4898  49.1438  36.1030   C.2       1 RES1   0.0000
  8799 C26     40.7668  48.9476  36.1030   C.2       1 RES1   0.0000
  8800 C27     40.7668  49.1438  44.1536   C.2       1 RES1   0.0000
  8801 C28     39.4898  48.9476  44.1536   C.2       1 RES1   0.0000
  8802 C29     36.1030  39.4898  49.1438   C.2       1 RES1   0.0000
  8803 C30     36.1030  40.7668  48.9476   C.2       1 RES1   0.0000
  8804 C31     44.1536  40.7668  49.1438   C.2       1 RES1   0.0000
  8805 C32     44.1536  39.4898  48.9476   C.2       1 RES1   0.0000
  8806 C33     49.1438  36.1030  39.4898   C.2       1 RES1   0.0000
  8807 C34     48.9476  36.1030  40.7668   C.2       1 RES1   0.0000
  8808 C35     49.1438  44.1536  40.7668   C.2       1 RES1   0.0000
  8809 C36     48.9476  44.1536  39.4898   C.2       1 RES1   0.0000
  8810 C37     49.6842  40.0302  53.0710   C.2       1 RES1   0.0000
  8811 C38     48.4072  40.2264  53.0710   C.2       1 RES1   0.0000
  8812 C39     48.4072  40.0302  45.0204   C.2       1 RES1   0.0000
  8813 C40     49.6842  40.2264  45.0204   C.2       1 RES1   0.0000
  8814 C41     53.0710  49.6842  40.0302   C.2       1 RES1   0.0000
  8815 C42     53.0710  48.4072  40.2264   C.2       1 RES1   0.0000
  8816 C43     45.0204  48.4072  40.0302   C.2       1 RES1   0.0000
  8817 C44     45.0204  49.6842  40.2264   C.2       1 RES1   0.0000
  8818 C45     40.0302  53.0710  49.6842   C.2       1 RES1   0.0000
  8819 C46     40.2264  53.0710  48.4072   C.2       1 RES1   0.0000
  8820 C47     40.0302  45.0204  48.4072   C.2       1 RES1   0.0000
  8821 C48     40.2264  45.0204  49.6842   C.2       1 RES1   0.0000
  8822 H1      39.1563  50.0123  36.1048   H         1 RES1   0.0000
  8823 H2      41.1003  48.0791  36.1048   H         1 RES1   0.0000
  8824 H3      41.1003  50.0123  44.1518   H         1 RES1   0.0000
  8825 H4      39.1563  48.0791  44.1518   H         1 RES1   0.0000
  8826 H5      36.1048  39.1563  50.0123   H         1 RES1   0.0000
  8827 H6      36.1048  41.1003  48.0791   H         1 RES1   0.0000
  8828 H7      44.1518  41.1003  50.0123   H         1 RES1   0.0000
  8829 H8      44.1518  39.1563  48.0791   H         1 RES1   0.0000
  8830 H9      50.0123  36.1048  39.1563   H         1 RES1   0.0000
  8831 H10     48.0791  36.1048  41.1003   H         1 RES1   0.0000
  8832 H11     50.0123  44.1518  41.1003   H         1 RES1   0.0000
  8833 H12     48.0791  44.1518  39.1563   H         1 RES1   0.0000
  8834 H13     50.0177  39.1617  53.0692   H         1 RES1   0.0000
  8835 H14     48.0737  41.0949  53.0692   H         1 RES1   0.0000
  8836 H15     48.0737  39.1617  45.0222   H         1 RES1   0.0000
  8837 H16     50.0177  41.0949  45.0222   H         1 RES1   0.0000
  8838 H17     53.0692  50.0177  39.1617   H         1 RES1   0.0000
  8839 H18     53.0692  48.0737  41.0949   H         1 RES1   0.0000
  8840 H19     45.0222  48.0737  39.1617   H         1 RES1   0.0000
  8841 H20     45.0222  50.0177  41.0949   H         1 RES1   0.0000
  8842 H21     39.1617  53.0692  50.0177   H         1 RES1   0.0000
  8843 H22     41.0949  53.0692  48.0737   H         1 RES1   0.0000
  8844 H23     39.1617  45.0222  48.0737   H         1 RES1   0.0000
  8845 H24     41.0949  45.0222  50.0177   H         1 RES1   0.0000
  8846 C49     39.0689  41.7299  35.6696   C.2       1 RES1   0.0000
  8847 C50     41.1877  38.5267  35.6696   C.2       1 RES1   0.0000
  8848 C51     41.1877  41.7299  44.5870   C.2       1 RES1   0.0000
  8849 C52     39.0689  38.5267  44.5870   C.2       1 RES1   0.0000
  8850 C53     35.6696  39.0689  41.7299   C.2       1 RES1   0.0000
  8851 C54     35.6696  41.1877  38.5267   C.2       1 RES1   0.0000
  8852 C55     44.5870  41.1877  41.7299   C.2       1 RES1   0.0000
  8853 C56     44.5870  39.0689  38.5267   C.2       1 RES1   0.0000
  8854 C57     41.7299  35.6696  39.0689   C.2       1 RES1   0.0000
  8855 C58     38.5267  35.6696  41.1877   C.2       1 RES1   0.0000
  8856 C59     41.7299  44.5870  41.1877   C.2       1 RES1   0.0000
  8857 C60     38.5267  44.5870  39.0689   C.2       1 RES1   0.0000
  8858 C61     50.1051  47.4441  53.5044   C.2       1 RES1   0.0000
  8859 C62     47.9863  50.6473  53.5044   C.2       1 RES1   0.0000
  8860 C63     47.9863  47.4441  44.5870   C.2       1 RES1   0.0000
  8861 C64     50.1051  50.6473  44.5870   C.2       1 RES1   0.0000
  8862 C65     53.5044  50.1051  47.4441   C.2       1 RES1   0.0000
  8863 C66     53.5044  47.9863  50.6473   C.2       1 RES1   0.0000
  8864 C67     44.5870  47.9863  47.4441   C.2       1 RES1   0.0000
  8865 C68     44.5870  50.1051  50.6473   C.2       1 RES1   0.0000
  8866 C69     47.4441  53.5044  50.1051   C.2       1 RES1   0.0000
  8867 C70     50.6473  53.5044  47.9863   C.2       1 RES1   0.0000
  8868 C71     47.4441  44.5870  47.9863   C.2       1 RES1   0.0000
  8869 C72     50.6473  44.5870  50.1051   C.2       1 RES1   0.0000
  8870 C73     40.2478  40.7793  35.6714   C.2       1 RES1   0.0000
  8871 C74     40.0088  39.4773  35.6714   C.2       1 RES1   0.0000
  8872 C75     40.0088  40.7793  44.5852   C.2       1 RES1   0.0000
  8873 C76     40.2478  39.4773  44.5852   C.2       1 RES1   0.0000
  8874 C77     35.6714  40.2478  40.7793   C.2       1 RES1   0.0000
  8875 C78     35.6714  40.0088  39.4773   C.2       1 RES1   0.0000
  8876 C79     44.5852  40.0088  40.7793   C.2       1 RES1   0.0000
  8877 C80     44.5852  40.2478  39.4773   C.2       1 RES1   0.0000
  8878 C81     40.7793  35.6714  40.2478   C.2       1 RES1   0.0000
  8879 C82     39.4773  35.6714  40.0088   C.2       1 RES1   0.0000
  8880 C83     40.7793  44.5852  40.0088   C.2       1 RES1   0.0000
  8881 C84     39.4773  44.5852  40.2478   C.2       1 RES1   0.0000
  8882 C85     48.9262  48.3947  53.5026   C.2       1 RES1   0.0000
  8883 C86     49.1652  49.6967  53.5026   C.2       1 RES1   0.0000
  8884 C87     49.1652  48.3947  44.5888   C.2       1 RES1   0.0000
  8885 C88     48.9262  49.6967  44.5888   C.2       1 RES1   0.0000
  8886 C89     53.5026  48.9262  48.3947   C.2       1 RES1   0.0000
  8887 C90     53.5026  49.1652  49.6967   C.2       1 RES1   0.0000
  8888 C91     44.5888  49.1652  48.3947   C.2       1 RES1   0.0000
  8889 C92     44.5888  48.9262  49.6967   C.2       1 RES1   0.0000
  8890 C93     48.3947  53.5026  48.9262   C.2       1 RES1   0.0000
  8891 C94     49.6967  53.5026  49.1652   C.2       1 RES1   0.0000
  8892 C95     48.3947  44.5888  49.1652   C.2       1 RES1   0.0000
  8893 C96     49.6967  44.5888  48.9262   C.2       1 RES1   0.0000
  8894 H25     41.1199  41.1021  35.6714   H         1 RES1   0.0000
  8895 H26     39.1367  39.1545  35.6714   H         1 RES1   0.0000
  8896 H27     39.1367  41.1021  44.5852   H         1 RES1   0.0000
  8897 H28     41.1199  39.1545  44.5852   H         1 RES1   0.0000
  8898 H29     35.6714  41.1199  41.1021   H         1 RES1   0.0000
  8899 H30     35.6714  39.1367  39.1545   H         1 RES1   0.0000
  8900 H31     44.5852  39.1367  41.1021   H         1 RES1   0.0000
  8901 H32     44.5852  41.1199  39.1545   H         1 RES1   0.0000
  8902 H33     41.1021  35.6714  41.1199   H         1 RES1   0.0000
  8903 H34     39.1545  35.6714  39.1367   H         1 RES1   0.0000
  8904 H35     41.1021  44.5852  39.1367   H         1 RES1   0.0000
  8905 H36     39.1545  44.5852  41.1199   H         1 RES1   0.0000
  8906 H37     48.0541  48.0719  53.5026   H         1 RES1   0.0000
  8907 H38     50.0373  50.0195  53.5026   H         1 RES1   0.0000
  8908 H39     50.0373  48.0719  44.5888   H         1 RES1   0.0000
  8909 H40     48.0541  50.0195  44.5888   H         1 RES1   0.0000
  8910 H41     53.5026  48.0541  48.0719   H         1 RES1   0.0000
  8911 H42     53.5026  50.0373  50.0195   H         1 RES1   0.0000
  8912 H43     44.5888  50.0373  48.0719   H         1 RES1   0.0000
  8913 H44     44.5888  48.0541  50.0195   H         1 RES1   0.0000
  8914 H45     48.0719  53.5026  48.0541   H         1 RES1   0.0000
  8915 H46     50.0195  53.5026  50.0373   H         1 RES1   0.0000
  8916 H47     48.0719  44.5888  50.0373   H         1 RES1   0.0000
  8917 H48     50.0195  44.5888  48.0541   H         1 RES1   0.0000
  8918 O97     37.0340  46.2225  52.3505   O3        1 RES1   0.0000
  8919 O98     43.2226  51.8689  52.3505   O3        1 RES1   0.0000
  8920 O99     43.2226  46.2225  45.7409   O3        1 RES1   0.0000
  8921 O101    52.3505  37.0340  46.2225   O3        1 RES1   0.0000
  8922 O102    52.3505  43.2226  51.8689   O3        1 RES1   0.0000
  8923 O103    45.7409  43.2226  46.2225   O3        1 RES1   0.0000
  8924 O105    46.2225  52.3505  37.0340   O3        1 RES1   0.0000
  8925 O106    51.8689  52.3505  43.2226   O3        1 RES1   0.0000
  8926 O107    46.2225  45.7409  43.2226   O3        1 RES1   0.0000
  8927 O111    45.9514  42.9515  43.4331   O3        1 RES1   0.0000
  8928 O112    52.1400  37.3051  43.4331   O3        1 RES1   0.0000
  8929 O115    43.4331  45.9514  42.9515   O3        1 RES1   0.0000
  8930 O116    43.4331  52.1400  37.3051   O3        1 RES1   0.0000
  8931 O119    42.9515  43.4331  45.9514   O3        1 RES1   0.0000
  8932 O155    43.1870  43.1870  43.1870   O3        1 RES1   0.0000
  8933 O157    52.1044  45.9870  52.1044   O3        1 RES1   0.0000
  8934 O158    45.9870  52.1044  52.1044   O3        1 RES1   0.0000
  8935 O159    45.9870  45.9870  45.9870   O3        1 RES1   0.0000
  8936 O160    52.1044  52.1044  45.9870   O3        1 RES1   0.0000
  8937 Zr1     38.1281  44.7855  53.7163   Zr        1 RES1   0.0000
  8938 Zr1     55.9629  44.7855  35.8815   Zr        1 RES1   0.0000
  8939 Zr2     42.1285  53.3059  53.7163   Zr        1 RES1   0.0000
  8940 Zr4     55.9629  53.3059  44.3751   Zr        1 RES1   0.0000
  8941 Zr5     35.8815  55.9629  44.7855   Zr        1 RES1   0.0000
  8942 Zr5     53.7163  38.1281  44.7855   Zr        1 RES1   0.0000
  8943 Zr6     53.7163  42.1285  53.3059   Zr        1 RES1   0.0000
  8944 Zr8     44.3751  55.9629  53.3059   Zr        1 RES1   0.0000
  8945 Zr9     44.7855  35.8815  55.9629   Zr        1 RES1   0.0000
  8946 Zr9     44.7855  53.7163  38.1281   Zr        1 RES1   0.0000
  8947 Zr10    53.3059  53.7163  42.1285   Zr        1 RES1   0.0000
  8948 Zr12    53.3059  44.3751  55.9629   Zr        1 RES1   0.0000
  8949 Zr14    47.0455  53.7029  53.2925   Zr        1 RES1   0.0000
  8950 Zr16    51.0459  53.7029  44.7989   Zr        1 RES1   0.0000
  8951 Zr18    53.2925  47.0455  53.7029   Zr        1 RES1   0.0000
  8952 Zr20    44.7989  51.0459  53.7029   Zr        1 RES1   0.0000
  8953 Zr22    53.7029  53.2925  47.0455   Zr        1 RES1   0.0000
  8954 Zr24    53.7029  44.7989  51.0459   Zr        1 RES1   0.0000
  8955 O2      40.8595  55.1363  35.8123   O.2       1 RES1   0.0000
  8956 O4      39.3971  55.1363  44.4443   O.2       1 RES1   0.0000
  8957 O6      35.8123  40.8595  55.1363   O.2       1 RES1   0.0000
  8958 O8      44.4443  39.3971  55.1363   O.2       1 RES1   0.0000
  8959 O10     55.1363  35.8123  40.8595   O.2       1 RES1   0.0000
  8960 O12     55.1363  44.4443  39.3971   O.2       1 RES1   0.0000
  8961 O50     41.2055  53.3742  37.9221   O.2       1 RES1   0.0000
  8962 O52     39.0511  53.3742  42.3345   O.2       1 RES1   0.0000
  8963 O54     37.9221  41.2055  53.3742   O.2       1 RES1   0.0000
  8964 O56     42.3345  39.0511  53.3742   O.2       1 RES1   0.0000
  8965 O58     53.3742  37.9221  41.2055   O.2       1 RES1   0.0000
  8966 O60     53.3742  42.3345  39.0511   O.2       1 RES1   0.0000
  8967 O85     49.7805  44.1607  55.1202   O.2       1 RES1   0.0000
  8968 O86     48.3109  36.0959  55.1202   O.2       1 RES1   0.0000
  8969 O89     55.1202  49.7805  44.1607   O.2       1 RES1   0.0000
  8970 O90     55.1202  48.3109  36.0959   O.2       1 RES1   0.0000
  8971 O93     44.1607  55.1202  49.7805   O.2       1 RES1   0.0000
  8972 O94     36.0959  55.1202  48.3109   O.2       1 RES1   0.0000
  8973 O97     54.8688  46.2225  34.5157   O3        1 RES1   0.0000
  8974 O100    54.8688  51.8689  45.7409   O3        1 RES1   0.0000
  8975 O101    34.5157  54.8688  46.2225   O3        1 RES1   0.0000
  8976 O104    45.7409  54.8688  51.8689   O3        1 RES1   0.0000
  8977 O105    46.2225  34.5157  54.8688   O3        1 RES1   0.0000
  8978 O108    51.8689  45.7409  54.8688   O3        1 RES1   0.0000
  8979 O109    52.1400  42.9515  54.6583   O3        1 RES1   0.0000
  8980 O110    45.9514  37.3051  54.6583   O3        1 RES1   0.0000
  8981 O113    54.6583  52.1400  42.9515   O3        1 RES1   0.0000
  8982 O114    54.6583  45.9514  37.3051   O3        1 RES1   0.0000
  8983 O117    42.9515  54.6583  52.1400   O3        1 RES1   0.0000
  8984 O118    37.3051  54.6583  45.9514   O3        1 RES1   0.0000
  8985 O120    37.3051  43.4331  34.3052   O3        1 RES1   0.0000
  8986 O153    37.0696  43.1870  54.9044   O3        1 RES1   0.0000
  8987 O153    54.9044  43.1870  37.0696   O3        1 RES1   0.0000
  8988 O154    43.1870  37.0696  54.9044   O3        1 RES1   0.0000
  8989 O154    43.1870  54.9044  37.0696   O3        1 RES1   0.0000
  8990 O156    37.0696  54.9044  43.1870   O3        1 RES1   0.0000
  8991 O156    54.9044  37.0696  43.1870   O3        1 RES1   0.0000
@<TRIPOS>BOND
     1     1    25   un
     2     1    49   un
     3     1    73   un
     4     1   282    1
     5     1   288    1
     6     1   306   un
     7     1   317   un
     8     1   330   un
     9     1   341   un
    10     1   368   un
    11     1   380    1
    12     1   403    1
    13     2    20   un
    14     2    50   un
    15     2   284    1
    16     2   310   un
    17     2   313   un
    18     2   337   un
    19     2   344   un
    20     2   356   un
    21     2   369   un
    22     2   382    1
    23     2   400    1
    24     2   407    1
    25     3     7   un
    26     3    11   un
    27     3    19   un
    28     3    23   un
    29     3    27   un
    30     3    51   un
    31     3    75   un
    32     3    99   un
    33     3   267    1
    34     3   283    1
    35     3   287    1
    36     3   290    1
    37     4    22   un
    38     4    52   un
    39     4   100   un
    40     4   268    1
    41     4   281    1
    42     4   304   un
    43     4   315   un
    44     4   328   un
    45     4   345   un
    46     4   357   un
    47     4   402    1
    48     4   408    1
    49     5    29   un
    50     5    53   un
    51     5    77   un
    52     5   286    1
    53     5   291    1
    54     5   301   un
    55     5   314   un
    56     5   325   un
    57     5   338   un
    58     5   370   un
    59     5   384    1
    60     5   395    1
    61     6    24   un
    62     6    54   un
    63     6   296   un
    64     6   318   un
    65     6   320   un
    66     6   346   un
    67     6   358   un
    68     6   371   un
    69     6   386    1
    70     6   392    1
    71     6   404    1
    72     7    11   un
    73     7    15   un
    74     7    23   un
    75     7    31   un
    76     7    55   un
    77     7    79   un
    78     7   103   un
    79     7   271    1
    80     7   279    1
    81     7   287    1
    82     7   290    1
    83     8    14   un
    84     8    56   un
    85     8   104   un
    86     8   272    1
    87     8   285    1
    88     8   299   un
    89     8   312   un
    90     8   336   un
    91     8   347   un
    92     8   359   un
    93     8   394    1
    94     8   406    1
    95     9    33   un
    96     9    57   un
    97     9    81   un
    98     9   278    1
    99     9   289    1
   100     9   298   un
   101     9   309   un
   102     9   322   un
   103     9   333   un
   104     9   372   un
   105     9   388    1
   106     9   399    1
   107    10    16   un
   108    10    58   un
   109    10   280    1
   110    10   302   un
   111    10   305   un
   112    10   329   un
   113    10   348   un
   114    10   360   un
   115    10   373   un
   116    10   390    1
   117    10   396    1
   118    10   409    1
   119    11    15   un
   120    11    19   un
   121    11    35   un
   122    11    59   un
   123    11    83   un
   124    11   107   un
   125    11   275    1
   126    11   279    1
   127    11   283    1
   128    11   290    1
   129    12    18   un
   130    12    60   un
   131    12   108   un
   132    12   276    1
   133    12   277    1
   134    12   297   un
   135    12   307   un
   136    12   321   un
   137    12   349   un
   138    12   361   un
   139    12   398    1
   140    12   405    1
   141    13    37   un
   142    13    61   un
   143    13    85   un
   144    13   270    1
   145    13   292    1
   146    13   308   un
   147    13   319   un
   148    13   332   un
   149    13   343   un
   150    13   374   un
   151    13   391    1
   152    13   393    1
   153    14    62   un
   154    14   272    1
   155    14   312   un
   156    14   334   un
   157    14   336   un
   158    14   350   un
   159    14   362   un
   160    14   375   un
   161    14   389    1
   162    14   394    1
   163    14   412    1
   164    15    19   un
   165    15    23   un
   166    15    39   un
   167    15    63   un
   168    15    87   un
   169    15   111   un
   170    15   271    1
   171    15   275    1
   172    15   279    1
   173    15   294    1
   174    16    64   un
   175    16   112   un
   176    16   269    1
   177    16   280    1
   178    16   305   un
   179    16   329   un
   180    16   339   un
   181    16   351   un
   182    16   363   un
   183    16   390    1
   184    16   415    1
   185    17    41   un
   186    17    65   un
   187    17    89   un
   188    17   274    1
   189    17   295    1
   190    17   303   un
   191    17   316   un
   192    17   327   un
   193    17   340   un
   194    17   376   un
   195    17   383    1
   196    17   397    1
   197    18    66   un
   198    18   276    1
   199    18   297   un
   200    18   321   un
   201    18   342   un
   202    18   352   un
   203    18   364   un
   204    18   377   un
   205    18   381    1
   206    18   398    1
   207    18   411    1
   208    19    23   un
   209    19    43   un
   210    19    67   un
   211    19    91   un
   212    19   115   un
   213    19   267    1
   214    19   275    1
   215    19   283    1
   216    19   294    1
   217    20    68   un
   218    20   116   un
   219    20   273    1
   220    20   284    1
   221    20   313   un
   222    20   323   un
   223    20   337   un
   224    20   353   un
   225    20   365   un
   226    20   382    1
   227    20   413    1
   228    21    45   un
   229    21    69   un
   230    21    93   un
   231    21   266    1
   232    21   293    1
   233    21   300   un
   234    21   311   un
   235    21   324   un
   236    21   335   un
   237    21   378   un
   238    21   387    1
   239    21   401    1
   240    22    70   un
   241    22   268    1
   242    22   304   un
   243    22   326   un
   244    22   328   un
   245    22   354   un
   246    22   366   un
   247    22   379   un
   248    22   385    1
   249    22   402    1
   250    22   414    1
   251    23    47   un
   252    23    71   un
   253    23    95   un
   254    23   119   un
   255    23   267    1
   256    23   271    1
   257    23   287    1
   258    23   294    1
   259    24    72   un
   260    24   120   un
   261    24   265    1
   262    24   296   un
   263    24   320   un
   264    24   331   un
   265    24   355   un
   266    24   367   un
   267    24   386    1
   268    24   410    1
   269    25   193   un
   270    26   194   un
   271    26   298   un
   272    27   195   un
   273    28   196   un
   274    28   301   un
   275    29   197   un
   276    30   198   un
   277    30   306   un
   278    31   199   un
   279    32   200   un
   280    32   309   un
   281    33   201   un
   282    34   202   un
   283    34   314   un
   284    35   203   un
   285    36   204   un
   286    36   317   un
   287    37   205   un
   288    38   206   un
   289    38   324   un
   290    39   207   un
   291    40   208   un
   292    40   327   un
   293    41   209   un
   294    42   210   un
   295    42   332   un
   296    43   211   un
   297    44   212   un
   298    44   335   un
   299    45   213   un
   300    46   214   un
   301    46   340   un
   302    47   215   un
   303    48   216   un
   304    48   343   un
   305    49   121   un
   306    50   122   un
   307    51   123   un
   308    52   124   un
   309    53   125   un
   310    54   126   un
   311    55   127   un
   312    56   128   un
   313    57   129   un
   314    58   130   un
   315    59   131   un
   316    60   132   un
   317    61   133   un
   318    62   134   un
   319    63   135   un
   320    64   136   un
   321    65   137   un
   322    66   138   un
   323    67   139   un
   324    68   140   un
   325    69   141   un
   326    70   142   un
   327    71   143   un
   328    72   144   un
   329    73   204   un
   330    74   201   un
   331    74   298   un
   332    75   203   un
   333    76   202   un
   334    76   301   un
   335    77   196   un
   336    78   193   un
   337    78   306   un
   338    79   195   un
   339    80   194   un
   340    80   309   un
   341    81   200   un
   342    82   197   un
   343    82   314   un
   344    83   199   un
   345    84   198   un
   346    84   317   un
   347    85   216   un
   348    86   213   un
   349    86   324   un
   350    87   215   un
   351    88   214   un
   352    88   327   un
   353    89   208   un
   354    90   205   un
   355    90   332   un
   356    91   207   un
   357    92   206   un
   358    92   335   un
   359    93   212   un
   360    94   209   un
   361    94   340   un
   362    95   211   un
   363    96   210   un
   364    96   343   un
   365    97   144   un
   366    97   296   un
   367    98   141   un
   368    98   300   un
   369    99   143   un
   370   100   142   un
   371   101   136   un
   372   101   305   un
   373   102   133   un
   374   102   308   un
   375   103   135   un
   376   104   134   un
   377   105   140   un
   378   105   313   un
   379   106   137   un
   380   106   316   un
   381   107   139   un
   382   108   138   un
   383   109   132   un
   384   109   321   un
   385   110   129   un
   386   110   322   un
   387   111   131   un
   388   112   130   un
   389   113   124   un
   390   113   328   un
   391   114   121   un
   392   114   330   un
   393   115   123   un
   394   116   122   un
   395   117   128   un
   396   117   336   un
   397   118   125   un
   398   118   338   un
   399   119   127   un
   400   120   126   un
   401   121   145   un
   402   122   146   un
   403   123   147   un
   404   124   148   un
   405   125   149   un
   406   126   150   un
   407   127   151   un
   408   128   152   un
   409   129   153   un
   410   130   154   un
   411   131   155   un
   412   132   156   un
   413   133   157   un
   414   134   158   un
   415   135   159   un
   416   136   160   un
   417   137   161   un
   418   138   162   un
   419   139   163   un
   420   140   164   un
   421   141   165   un
   422   142   166   un
   423   143   167   un
   424   144   168   un
   425   145   146   un
   426   145   169    1
   427   146   170    1
   428   147   148   un
   429   147   171    1
   430   148   172    1
   431   149   150   un
   432   149   173    1
   433   150   174    1
   434   151   152   un
   435   151   175    1
   436   152   176    1
   437   153   154   un
   438   153   177    1
   439   154   178    1
   440   155   156   un
   441   155   179    1
   442   156   180    1
   443   157   158   un
   444   157   181    1
   445   158   182    1
   446   159   160   un
   447   159   183    1
   448   160   184    1
   449   161   162   un
   450   161   185    1
   451   162   186    1
   452   163   164   un
   453   163   187    1
   454   164   188    1
   455   165   166   un
   456   165   189    1
   457   166   190    1
   458   167   168   un
   459   167   191    1
   460   168   192    1
   461   193   217   un
   462   194   218   un
   463   195   219   un
   464   196   220   un
   465   197   221   un
   466   198   222   un
   467   199   223   un
   468   200   224   un
   469   201   225   un
   470   202   226   un
   471   203   227   un
   472   204   228   un
   473   205   229   un
   474   206   230   un
   475   207   231   un
   476   208   232   un
   477   209   233   un
   478   210   234   un
   479   211   235   un
   480   212   236   un
   481   213   237   un
   482   214   238   un
   483   215   239   un
   484   216   240   un
   485   217   218   un
   486   217   241    1
   487   218   242    1
   488   219   220   un
   489   219   243    1
   490   220   244    1
   491   221   222   un
   492   221   245    1
   493   222   246    1
   494   223   224   un
   495   223   247    1
   496   224   248    1
   497   225   226   un
   498   225   249    1
   499   226   250    1
   500   227   228   un
   501   227   251    1
   502   228   252    1
   503   229   230   un
   504   229   253    1
   505   230   254    1
   506   231   232   un
   507   231   255    1
   508   232   256    1
   509   233   234   un
   510   233   257    1
   511   234   258    1
   512   235   236   un
   513   235   259    1
   514   236   260    1
   515   237   238   un
   516   237   261    1
   517   238   262    1
   518   239   240   un
   519   239   263    1
   520   240   264    1
   521   265   296    1
   522   265   331    1
   523   266   300    1
   524   266   335    1
   525   268   328    1
   526   269   305    1
   527   269   339    1
   528   270   308    1
   529   270   343    1
   530   272   336    1
   531   273   313    1
   532   273   323    1
   533   274   316    1
   534   274   327    1
   535   276   321    1
   536   277   307    1
   537   277   321    1
   538   278   309    1
   539   278   322    1
   540   280   305    1
   541   281   315    1
   542   281   328    1
   543   282   317    1
   544   282   330    1
   545   284   313    1
   546   285   299    1
   547   285   336    1
   548   286   301    1
   549   286   338    1
   550   288   306    1
   551   288   317    1
   552   289   298    1
   553   289   309    1
   554   291   301    1
   555   291   314    1
   556   292   332    1
   557   292   343    1
   558   293   324    1
   559   293   335    1
   560   295   327    1
   561   295   340    1
   562   296   318   un
   563   296   331   un
   564   296   404    1
   565   297   307   un
   566   297   342   un
   567   297   381    1
   568   297   398    1
   569   297   405    1
   570   298   309   un
   571   298   333   un
   572   298   399    1
   573   299   312   un
   574   299   334   un
   575   299   336   un
   576   299   406    1
   577   300   311   un
   578   300   335   un
   579   300   401    1
   580   301   314   un
   581   301   338   un
   582   302   305   un
   583   302   329   un
   584   302   339   un
   585   302   396    1
   586   302   409    1
   587   303   316   un
   588   303   340   un
   589   303   383    1
   590   303   397    1
   591   304   315   un
   592   304   326   un
   593   304   385    1
   594   304   402    1
   595   304   408    1
   596   305   339   un
   597   305   409    1
   598   306   317   un
   599   306   341   un
   600   306   403    1
   601   307   321   un
   602   307   342   un
   603   307   405    1
   604   308   319   un
   605   308   343   un
   606   308   393    1
   607   309   322   un
   608   310   313   un
   609   310   323   un
   610   310   337   un
   611   310   400    1
   612   310   407    1
   613   311   324   un
   614   311   387    1
   615   311   401    1
   616   312   334   un
   617   312   389    1
   618   312   394    1
   619   312   406    1
   620   313   323   un
   621   313   407    1
   622   314   325   un
   623   314   395    1
   624   315   326   un
   625   315   328   un
   626   315   408    1
   627   316   327   un
   628   316   397    1
   629   317   330   un
   630   318   320   un
   631   318   331   un
   632   318   392    1
   633   318   404    1
   634   319   332   un
   635   319   391    1
   636   319   393    1
   637   320   331   un
   638   320   386    1
   639   320   392    1
   640   320   410    1
   641   321   342   un
   642   321   411    1
   643   322   333   un
   644   322   388    1
   645   323   337   un
   646   323   413    1
   647   324   335   un
   648   324   387    1
   649   325   338   un
   650   325   384    1
   651   325   395    1
   652   326   328   un
   653   326   385    1
   654   326   414    1
   655   327   340   un
   656   328   414    1
   657   329   339   un
   658   329   390    1
   659   329   396    1
   660   329   415    1
   661   330   341   un
   662   330   380    1
   663   331   410    1
   664   332   343   un
   665   332   391    1
   666   333   388    1
   667   333   399    1
   668   334   336   un
   669   334   389    1
   670   334   412    1
   671   336   412    1
   672   337   382    1
   673   337   400    1
   674   337   413    1
   675   338   384    1
   676   339   415    1
   677   340   383    1
   678   341   380    1
   679   341   403    1
   680   342   381    1
   681   342   411    1
   682   296   434   un
   683   296   456   un
   684   296   480   un
   685   296   682    1
   686   296   777    1
   687   300   457   un
   688   300   684    1
   689   300   706   un
   690   300   728   un
   691   300   738   un
   692   300   781    1
   693   416   420   un
   694   416   423   un
   695   416   429   un
   696   416   432   un
   697   416   436   un
   698   416   458   un
   699   416   482   un
   700   416   504   un
   701   416   670    1
   702   416   683    1
   703   416   687    1
   704   416   688    1
   705   417   431   un
   706   417   459   un
   707   417   505   un
   708   417   671    1
   709   417   681    1
   710   417   701   un
   711   417   708   un
   712   417   717   un
   713   417   729   un
   714   417   739   un
   715   417   776    1
   716   417   782    1
   717   418   438   un
   718   418   460   un
   719   418   484   un
   720   418   686    1
   721   418   689    1
   722   418   698   un
   723   418   707   un
   724   418   714   un
   725   418   724   un
   726   418   748   un
   727   418   760    1
   728   418   770    1
   729   419   433   un
   730   419   461   un
   731   419   694   un
   732   419   710   un
   733   419   712   un
   734   419   730   un
   735   419   740   un
   736   419   749   un
   737   419   762    1
   738   419   767    1
   739   419   778    1
   740   420   423   un
   741   420   426   un
   742   420   432   un
   743   420   439   un
   744   420   462   un
   745   420   485   un
   746   420   508   un
   747   420   674    1
   748   420   679    1
   749   420   687    1
   750   420   688    1
   751   421   425   un
   752   421   463   un
   753   421   509   un
   754   421   675    1
   755   421   685    1
   756   421   696   un
   757   421   705   un
   758   421   723   un
   759   421   731   un
   760   421   741   un
   761   421   769    1
   762   421   780    1
   763   312   440   un
   764   312   464   un
   765   312   486   un
   766   312   750   un
   767   312   774    1
   768   422   427   un
   769   422   465   un
   770   422   680    1
   771   422   699   un
   772   422   702   un
   773   422   718   un
   774   422   732   un
   775   422   742   un
   776   422   751   un
   777   422   765    1
   778   422   771    1
   779   422   783    1
   780   423   426   un
   781   423   429   un
   782   423   442   un
   783   423   466   un
   784   423   488   un
   785   423   512   un
   786   423   678    1
   787   423   679    1
   788   423   683    1
   789   423   688    1
   790   319   467   un
   791   319   513   un
   792   319   695   un
   793   319   733   un
   794   319   743   un
   795   319   773    1
   796   319   779    1
   797   424   444   un
   798   424   468   un
   799   424   490   un
   800   424   673    1
   801   424   690    1
   802   424   703   un
   803   424   711   un
   804   424   720   un
   805   424   727   un
   806   424   752   un
   807   424   766    1
   808   424   768    1
   809   425   469   un
   810   425   675    1
   811   425   705   un
   812   425   721   un
   813   425   723   un
   814   425   734   un
   815   425   744   un
   816   425   753   un
   817   425   764    1
   818   425   769    1
   819   425   785    1
   820   426   429   un
   821   426   432   un
   822   426   446   un
   823   426   470   un
   824   426   492   un
   825   426   514   un
   826   426   674    1
   827   426   678    1
   828   426   679    1
   829   426   692    1
   830   427   471   un
   831   427   515   un
   832   427   672    1
   833   427   680    1
   834   427   702   un
   835   427   718   un
   836   427   725   un
   837   427   735   un
   838   427   745   un
   839   427   765    1
   840   427   787    1
   841   428   448   un
   842   428   472   un
   843   428   494   un
   844   428   677    1
   845   428   693    1
   846   428   700   un
   847   428   709   un
   848   428   716   un
   849   428   726   un
   850   428   754   un
   851   428   759    1
   852   428   772    1
   853   332   473   un
   854   332   695   un
   855   332   755   un
   856   332   758    1
   857   332   773    1
   858   429   432   un
   859   429   450   un
   860   429   474   un
   861   429   496   un
   862   429   518   un
   863   429   670    1
   864   429   678    1
   865   429   683    1
   866   429   692    1
   867   335   475   un
   868   335   519   un
   869   335   676    1
   870   335   684    1
   871   335   706   un
   872   430   452   un
   873   430   476   un
   874   430   498   un
   875   430   669    1
   876   430   691    1
   877   430   697   un
   878   430   704   un
   879   430   713   un
   880   430   722   un
   881   430   756   un
   882   430   763    1
   883   430   775    1
   884   431   477   un
   885   431   671    1
   886   431   701   un
   887   431   715   un
   888   431   717   un
   889   431   736   un
   890   431   746   un
   891   431   757   un
   892   431   761    1
   893   431   776    1
   894   431   786    1
   895   432   454   un
   896   432   478   un
   897   432   500   un
   898   432   522   un
   899   432   670    1
   900   432   674    1
   901   432   687    1
   902   432   692    1
   903   433   479   un
   904   433   523   un
   905   433   668    1
   906   433   694   un
   907   433   712   un
   908   433   719   un
   909   433   737   un
   910   433   747   un
   911   433   762    1
   912   433   784    1
   913   434   596   un
   914   435   597   un
   915   435   299   un
   916   436   598   un
   917   437   599   un
   918   437   698   un
   919   438   600   un
   920   346   601   un
   921   439   602   un
   922   347   603   un
   923   440   604   un
   924   441   605   un
   925   441   707   un
   926   442   606   un
   927   443   607   un
   928   443   318   un
   929   444   608   un
   930   445   609   un
   931   445   713   un
   932   446   610   un
   933   447   611   un
   934   447   716   un
   935   448   612   un
   936   449   613   un
   937   449   720   un
   938   450   614   un
   939   451   615   un
   940   451   722   un
   941   452   616   un
   942   453   617   un
   943   453   726   un
   944   454   618   un
   945   455   619   un
   946   455   727   un
   947   456   524   un
   948   457   525   un
   949   458   526   un
   950   459   527   un
   951   460   528   un
   952   461   529   un
   953   462   530   un
   954   463   531   un
   955   464   532   un
   956   465   533   un
   957   466   534   un
   958   467   535   un
   959   468   536   un
   960   469   537   un
   961   470   538   un
   962   471   539   un
   963   472   540   un
   964   473   541   un
   965   474   542   un
   966   475   543   un
   967   476   544   un
   968   477   545   un
   969   478   546   un
   970   479   547   un
   971   480   607   un
   972   481   604   un
   973   481   299   un
   974   482   606   un
   975   483   605   un
   976   483   698   un
   977   484   599   un
   978   358   596   un
   979   485   598   un
   980   359   597   un
   981   486   603   un
   982   487   600   un
   983   487   707   un
   984   488   602   un
   985   489   601   un
   986   489   318   un
   987   490   619   un
   988   491   616   un
   989   491   713   un
   990   492   618   un
   991   493   617   un
   992   493   716   un
   993   494   611   un
   994   495   608   un
   995   495   720   un
   996   496   610   un
   997   497   609   un
   998   497   722   un
   999   498   615   un
  1000   499   612   un
  1001   499   726   un
  1002   500   614   un
  1003   501   613   un
  1004   501   727   un
  1005   502   547   un
  1006   502   694   un
  1007   503   544   un
  1008   503   697   un
  1009   504   546   un
  1010   505   545   un
  1011   506   539   un
  1012   506   702   un
  1013   507   536   un
  1014   507   703   un
  1015   508   538   un
  1016   509   537   un
  1017   510   543   un
  1018   510   706   un
  1019   511   540   un
  1020   511   709   un
  1021   512   542   un
  1022   513   541   un
  1023   374   535   un
  1024   375   532   un
  1025   514   534   un
  1026   515   533   un
  1027   516   527   un
  1028   516   717   un
  1029   517   524   un
  1030   517   331   un
  1031   518   526   un
  1032   519   525   un
  1033   520   531   un
  1034   520   723   un
  1035   521   528   un
  1036   521   724   un
  1037   522   530   un
  1038   523   529   un
  1039   524   548   un
  1040   525   549   un
  1041   526   550   un
  1042   527   551   un
  1043   528   552   un
  1044   529   553   un
  1045   530   554   un
  1046   531   555   un
  1047   532   556   un
  1048   533   557   un
  1049   534   558   un
  1050   535   559   un
  1051   536   560   un
  1052   537   561   un
  1053   538   562   un
  1054   539   563   un
  1055   540   564   un
  1056   541   565   un
  1057   542   566   un
  1058   543   567   un
  1059   544   568   un
  1060   545   569   un
  1061   546   570   un
  1062   547   571   un
  1063   548   549   un
  1064   548   572    1
  1065   549   573    1
  1066   550   551   un
  1067   550   574    1
  1068   551   575    1
  1069   552   553   un
  1070   552   576    1
  1071   553   577    1
  1072   554   555   un
  1073   554   578    1
  1074   555   579    1
  1075   556   557   un
  1076   556   580    1
  1077   557   581    1
  1078   558   559   un
  1079   558   582    1
  1080   559   583    1
  1081   560   561   un
  1082   560   584    1
  1083   561   585    1
  1084   562   563   un
  1085   562   586    1
  1086   563   587    1
  1087   564   565   un
  1088   564   588    1
  1089   565   589    1
  1090   566   567   un
  1091   566   590    1
  1092   567   591    1
  1093   568   569   un
  1094   568   592    1
  1095   569   593    1
  1096   570   571   un
  1097   570   594    1
  1098   571   595    1
  1099   596   620   un
  1100   597   621   un
  1101   598   622   un
  1102   599   623   un
  1103   600   624   un
  1104   601   625   un
  1105   602   626   un
  1106   603   627   un
  1107   604   628   un
  1108   605   629   un
  1109   606   630   un
  1110   607   631   un
  1111   608   632   un
  1112   609   633   un
  1113   610   634   un
  1114   611   635   un
  1115   612   636   un
  1116   613   637   un
  1117   614   638   un
  1118   615   639   un
  1119   616   640   un
  1120   617   641   un
  1121   618   642   un
  1122   619   643   un
  1123   620   621   un
  1124   620   644    1
  1125   621   645    1
  1126   622   623   un
  1127   622   646    1
  1128   623   647    1
  1129   624   625   un
  1130   624   648    1
  1131   625   649    1
  1132   626   627   un
  1133   626   650    1
  1134   627   651    1
  1135   628   629   un
  1136   628   652    1
  1137   629   653    1
  1138   630   631   un
  1139   630   654    1
  1140   631   655    1
  1141   632   633   un
  1142   632   656    1
  1143   633   657    1
  1144   634   635   un
  1145   634   658    1
  1146   635   659    1
  1147   636   637   un
  1148   636   660    1
  1149   637   661    1
  1150   638   639   un
  1151   638   662    1
  1152   639   663    1
  1153   640   641   un
  1154   640   664    1
  1155   641   665    1
  1156   642   643   un
  1157   642   666    1
  1158   643   667    1
  1159   668   694    1
  1160   668   719    1
  1161   669   697    1
  1162   669   722    1
  1163   671   717    1
  1164   672   702    1
  1165   672   725    1
  1166   673   703    1
  1167   673   727    1
  1168   675   723    1
  1169   676   706    1
  1170   676   324    1
  1171   677   709    1
  1172   677   716    1
  1173   680   702    1
  1174   681   708    1
  1175   681   717    1
  1176   682   318    1
  1177   682   331    1
  1178   684   706    1
  1179   685   696    1
  1180   685   723    1
  1181   686   698    1
  1182   686   724    1
  1183   689   698    1
  1184   689   707    1
  1185   690   720    1
  1186   690   727    1
  1187   691   713    1
  1188   691   722    1
  1189   693   716    1
  1190   693   726    1
  1191   694   710   un
  1192   694   719   un
  1193   694   778    1
  1194   695   308   un
  1195   695   343   un
  1196   695   758    1
  1197   695   773    1
  1198   695   779    1
  1199   299   774    1
  1200   696   705   un
  1201   696   721   un
  1202   696   723   un
  1203   696   780    1
  1204   697   704   un
  1205   697   722   un
  1206   697   775    1
  1207   698   707   un
  1208   698   724   un
  1209   699   702   un
  1210   699   718   un
  1211   699   725   un
  1212   699   771    1
  1213   699   783    1
  1214   700   709   un
  1215   700   726   un
  1216   700   759    1
  1217   700   772    1
  1218   701   708   un
  1219   701   715   un
  1220   701   761    1
  1221   701   776    1
  1222   701   782    1
  1223   702   725   un
  1224   702   783    1
  1225     6   777    1
  1226   308   779    1
  1227   703   711   un
  1228   703   727   un
  1229   703   768    1
  1230   311   706   un
  1231   311   781    1
  1232   704   713   un
  1233   704   763    1
  1234   704   775    1
  1235   705   721   un
  1236   705   764    1
  1237   705   769    1
  1238   705   780    1
  1239   706   324   un
  1240   706   781    1
  1241   707   714   un
  1242   707   770    1
  1243   708   715   un
  1244   708   717   un
  1245   708   782    1
  1246   709   716   un
  1247   709   772    1
  1248   710   712   un
  1249   710   719   un
  1250   710   767    1
  1251   710   778    1
  1252   711   720   un
  1253   711   766    1
  1254   711   768    1
  1255   712   719   un
  1256   712   762    1
  1257   712   767    1
  1258   712   784    1
  1259   713   722   un
  1260   713   763    1
  1261   714   724   un
  1262   714   760    1
  1263   714   770    1
  1264   715   717   un
  1265   715   761    1
  1266   715   786    1
  1267   716   726   un
  1268   717   786    1
  1269   718   725   un
  1270   718   765    1
  1271   718   771    1
  1272   718   787    1
  1273   719   784    1
  1274   720   727   un
  1275   720   766    1
  1276   334   774    1
  1277   721   723   un
  1278   721   764    1
  1279   721   785    1
  1280   723   785    1
  1281   724   760    1
  1282   725   787    1
  1283   726   759    1
  1284    24   777    1
  1285   343   758    1
  1286   694   806   un
  1287   694   828   un
  1288   694   852   un
  1289   694  1054    1
  1290   694  1149    1
  1291   697   829   un
  1292   697  1056    1
  1293   697  1078   un
  1294   697  1100   un
  1295   697  1110   un
  1296   697  1153    1
  1297   788   792   un
  1298   788   795   un
  1299   788   801   un
  1300   788   804   un
  1301   788   808   un
  1302   788   830   un
  1303   788   854   un
  1304   788   876   un
  1305   788  1042    1
  1306   788  1055    1
  1307   788  1059    1
  1308   788  1060    1
  1309   789   803   un
  1310   789   831   un
  1311   789   877   un
  1312   789  1043    1
  1313   789  1053    1
  1314   789  1073   un
  1315   789  1080   un
  1316   789  1089   un
  1317   789  1101   un
  1318   789  1111   un
  1319   789  1148    1
  1320   789  1154    1
  1321   790   810   un
  1322   790   832   un
  1323   790   856   un
  1324   790  1058    1
  1325   790  1061    1
  1326   790  1070   un
  1327   790  1079   un
  1328   790  1086   un
  1329   790  1096   un
  1330   790  1120   un
  1331   790  1132    1
  1332   790  1142    1
  1333   791   805   un
  1334   791   833   un
  1335   791  1066   un
  1336   791  1082   un
  1337   791  1084   un
  1338   791  1102   un
  1339   791  1112   un
  1340   791  1121   un
  1341   791  1134    1
  1342   791  1139    1
  1343   791  1150    1
  1344   792   795   un
  1345   792   798   un
  1346   792   804   un
  1347   792   811   un
  1348   792   834   un
  1349   792   857   un
  1350   792   880   un
  1351   792  1046    1
  1352   792  1051    1
  1353   792  1059    1
  1354   792  1060    1
  1355   793   797   un
  1356   793   835   un
  1357   793   881   un
  1358   793  1047    1
  1359   793  1057    1
  1360   793  1068   un
  1361   793  1077   un
  1362   793  1095   un
  1363   793  1103   un
  1364   793  1113   un
  1365   793  1141    1
  1366   793  1152    1
  1367   705   812   un
  1368   705   836   un
  1369   705   858   un
  1370   705  1122   un
  1371   705  1146    1
  1372   794   799   un
  1373   794   837   un
  1374   794  1052    1
  1375   794  1071   un
  1376   794  1074   un
  1377   794  1090   un
  1378   794  1104   un
  1379   794  1114   un
  1380   794  1123   un
  1381   794  1137    1
  1382   794  1143    1
  1383   794  1155    1
  1384   795   798   un
  1385   795   801   un
  1386   795   814   un
  1387   795   838   un
  1388   795   860   un
  1389   795   884   un
  1390   795  1050    1
  1391   795  1051    1
  1392   795  1055    1
  1393   795  1060    1
  1394   711   839   un
  1395   711   885   un
  1396   711  1067   un
  1397   711  1105   un
  1398   711  1115   un
  1399   711  1145    1
  1400   711  1151    1
  1401   796   816   un
  1402   796   840   un
  1403   796   862   un
  1404   796  1045    1
  1405   796  1062    1
  1406   796  1075   un
  1407   796  1083   un
  1408   796  1092   un
  1409   796  1099   un
  1410   796  1124   un
  1411   796  1138    1
  1412   796  1140    1
  1413   797   841   un
  1414   797  1047    1
  1415   797  1077   un
  1416   797  1093   un
  1417   797  1095   un
  1418   797  1106   un
  1419   797  1116   un
  1420   797  1125   un
  1421   797  1136    1
  1422   797  1141    1
  1423   797  1157    1
  1424   798   801   un
  1425   798   804   un
  1426   798   818   un
  1427   798   842   un
  1428   798   864   un
  1429   798   886   un
  1430   798  1046    1
  1431   798  1050    1
  1432   798  1051    1
  1433   798  1064    1
  1434   799   843   un
  1435   799   887   un
  1436   799  1044    1
  1437   799  1052    1
  1438   799  1074   un
  1439   799  1090   un
  1440   799  1097   un
  1441   799  1107   un
  1442   799  1117   un
  1443   799  1137    1
  1444   799  1159    1
  1445   800   820   un
  1446   800   844   un
  1447   800   866   un
  1448   800  1049    1
  1449   800  1065    1
  1450   800  1072   un
  1451   800  1081   un
  1452   800  1088   un
  1453   800  1098   un
  1454   800  1126   un
  1455   800  1131    1
  1456   800  1144    1
  1457   720   845   un
  1458   720  1067   un
  1459   720  1127   un
  1460   720  1130    1
  1461   720  1145    1
  1462   801   804   un
  1463   801   822   un
  1464   801   846   un
  1465   801   868   un
  1466   801   890   un
  1467   801  1042    1
  1468   801  1050    1
  1469   801  1055    1
  1470   801  1064    1
  1471   722   847   un
  1472   722   891   un
  1473   722  1048    1
  1474   722  1056    1
  1475   722  1078   un
  1476   802   824   un
  1477   802   848   un
  1478   802   870   un
  1479   802  1041    1
  1480   802  1063    1
  1481   802  1069   un
  1482   802  1076   un
  1483   802  1085   un
  1484   802  1094   un
  1485   802  1128   un
  1486   802  1135    1
  1487   802  1147    1
  1488   803   849   un
  1489   803  1043    1
  1490   803  1073   un
  1491   803  1087   un
  1492   803  1089   un
  1493   803  1108   un
  1494   803  1118   un
  1495   803  1129   un
  1496   803  1133    1
  1497   803  1148    1
  1498   803  1158    1
  1499   804   826   un
  1500   804   850   un
  1501   804   872   un
  1502   804   894   un
  1503   804  1042    1
  1504   804  1046    1
  1505   804  1059    1
  1506   804  1064    1
  1507   805   851   un
  1508   805   895   un
  1509   805  1040    1
  1510   805  1066   un
  1511   805  1084   un
  1512   805  1091   un
  1513   805  1109   un
  1514   805  1119   un
  1515   805  1134    1
  1516   805  1156    1
  1517   806   968   un
  1518   807   969   un
  1519   807   696   un
  1520   808   970   un
  1521   809   971   un
  1522   809  1070   un
  1523   810   972   un
  1524   730   973   un
  1525   811   974   un
  1526   731   975   un
  1527   812   976   un
  1528   813   977   un
  1529   813  1079   un
  1530   814   978   un
  1531   815   979   un
  1532   815   710   un
  1533   816   980   un
  1534   817   981   un
  1535   817  1085   un
  1536   818   982   un
  1537   819   983   un
  1538   819  1088   un
  1539   820   984   un
  1540   821   985   un
  1541   821  1092   un
  1542   822   986   un
  1543   823   987   un
  1544   823  1094   un
  1545   824   988   un
  1546   825   989   un
  1547   825  1098   un
  1548   826   990   un
  1549   827   991   un
  1550   827  1099   un
  1551   828   896   un
  1552   829   897   un
  1553   830   898   un
  1554   831   899   un
  1555   832   900   un
  1556   833   901   un
  1557   834   902   un
  1558   835   903   un
  1559   836   904   un
  1560   837   905   un
  1561   838   906   un
  1562   839   907   un
  1563   840   908   un
  1564   841   909   un
  1565   842   910   un
  1566   843   911   un
  1567   844   912   un
  1568   845   913   un
  1569   846   914   un
  1570   847   915   un
  1571   848   916   un
  1572   849   917   un
  1573   850   918   un
  1574   851   919   un
  1575   852   979   un
  1576   853   976   un
  1577   853   696   un
  1578   854   978   un
  1579   855   977   un
  1580   855  1070   un
  1581   856   971   un
  1582   740   968   un
  1583   857   970   un
  1584   741   969   un
  1585   858   975   un
  1586   859   972   un
  1587   859  1079   un
  1588   860   974   un
  1589   861   973   un
  1590   861   710   un
  1591   862   991   un
  1592   863   988   un
  1593   863  1085   un
  1594   864   990   un
  1595   865   989   un
  1596   865  1088   un
  1597   866   983   un
  1598   867   980   un
  1599   867  1092   un
  1600   868   982   un
  1601   869   981   un
  1602   869  1094   un
  1603   870   987   un
  1604   871   984   un
  1605   871  1098   un
  1606   872   986   un
  1607   873   985   un
  1608   873  1099   un
  1609   874   919   un
  1610   874  1066   un
  1611   875   916   un
  1612   875  1069   un
  1613   876   918   un
  1614   877   917   un
  1615   878   911   un
  1616   878  1074   un
  1617   879   908   un
  1618   879  1075   un
  1619   880   910   un
  1620   881   909   un
  1621   882   915   un
  1622   882  1078   un
  1623   883   912   un
  1624   883  1081   un
  1625   884   914   un
  1626   885   913   un
  1627   752   907   un
  1628   753   904   un
  1629   886   906   un
  1630   887   905   un
  1631   888   899   un
  1632   888  1089   un
  1633   889   896   un
  1634   889   719   un
  1635   890   898   un
  1636   891   897   un
  1637   892   903   un
  1638   892  1095   un
  1639   893   900   un
  1640   893  1096   un
  1641   894   902   un
  1642   895   901   un
  1643   896   920   un
  1644   897   921   un
  1645   898   922   un
  1646   899   923   un
  1647   900   924   un
  1648   901   925   un
  1649   902   926   un
  1650   903   927   un
  1651   904   928   un
  1652   905   929   un
  1653   906   930   un
  1654   907   931   un
  1655   908   932   un
  1656   909   933   un
  1657   910   934   un
  1658   911   935   un
  1659   912   936   un
  1660   913   937   un
  1661   914   938   un
  1662   915   939   un
  1663   916   940   un
  1664   917   941   un
  1665   918   942   un
  1666   919   943   un
  1667   920   921   un
  1668   920   944    1
  1669   921   945    1
  1670   922   923   un
  1671   922   946    1
  1672   923   947    1
  1673   924   925   un
  1674   924   948    1
  1675   925   949    1
  1676   926   927   un
  1677   926   950    1
  1678   927   951    1
  1679   928   929   un
  1680   928   952    1
  1681   929   953    1
  1682   930   931   un
  1683   930   954    1
  1684   931   955    1
  1685   932   933   un
  1686   932   956    1
  1687   933   957    1
  1688   934   935   un
  1689   934   958    1
  1690   935   959    1
  1691   936   937   un
  1692   936   960    1
  1693   937   961    1
  1694   938   939   un
  1695   938   962    1
  1696   939   963    1
  1697   940   941   un
  1698   940   964    1
  1699   941   965    1
  1700   942   943   un
  1701   942   966    1
  1702   943   967    1
  1703   968   992   un
  1704   969   993   un
  1705   970   994   un
  1706   971   995   un
  1707   972   996   un
  1708   973   997   un
  1709   974   998   un
  1710   975   999   un
  1711   976  1000   un
  1712   977  1001   un
  1713   978  1002   un
  1714   979  1003   un
  1715   980  1004   un
  1716   981  1005   un
  1717   982  1006   un
  1718   983  1007   un
  1719   984  1008   un
  1720   985  1009   un
  1721   986  1010   un
  1722   987  1011   un
  1723   988  1012   un
  1724   989  1013   un
  1725   990  1014   un
  1726   991  1015   un
  1727   992   993   un
  1728   992  1016    1
  1729   993  1017    1
  1730   994   995   un
  1731   994  1018    1
  1732   995  1019    1
  1733   996   997   un
  1734   996  1020    1
  1735   997  1021    1
  1736   998   999   un
  1737   998  1022    1
  1738   999  1023    1
  1739  1000  1001   un
  1740  1000  1024    1
  1741  1001  1025    1
  1742  1002  1003   un
  1743  1002  1026    1
  1744  1003  1027    1
  1745  1004  1005   un
  1746  1004  1028    1
  1747  1005  1029    1
  1748  1006  1007   un
  1749  1006  1030    1
  1750  1007  1031    1
  1751  1008  1009   un
  1752  1008  1032    1
  1753  1009  1033    1
  1754  1010  1011   un
  1755  1010  1034    1
  1756  1011  1035    1
  1757  1012  1013   un
  1758  1012  1036    1
  1759  1013  1037    1
  1760  1014  1015   un
  1761  1014  1038    1
  1762  1015  1039    1
  1763  1040  1066    1
  1764  1040  1091    1
  1765  1041  1069    1
  1766  1041  1094    1
  1767  1043  1089    1
  1768  1044  1074    1
  1769  1044  1097    1
  1770  1045  1075    1
  1771  1045  1099    1
  1772  1047  1095    1
  1773  1048  1078    1
  1774  1048   713    1
  1775  1049  1081    1
  1776  1049  1088    1
  1777  1052  1074    1
  1778  1053  1080    1
  1779  1053  1089    1
  1780  1054   710    1
  1781  1054   719    1
  1782  1056  1078    1
  1783  1057  1068    1
  1784  1057  1095    1
  1785  1058  1070    1
  1786  1058  1096    1
  1787  1061  1070    1
  1788  1061  1079    1
  1789  1062  1092    1
  1790  1062  1099    1
  1791  1063  1085    1
  1792  1063  1094    1
  1793  1065  1088    1
  1794  1065  1098    1
  1795  1066  1082   un
  1796  1066  1091   un
  1797  1066  1150    1
  1798  1067   703   un
  1799  1067   727   un
  1800  1067  1130    1
  1801  1067  1145    1
  1802  1067  1151    1
  1803   696  1146    1
  1804  1068  1077   un
  1805  1068  1093   un
  1806  1068  1095   un
  1807  1068  1152    1
  1808  1069  1076   un
  1809  1069  1094   un
  1810  1069  1147    1
  1811  1070  1079   un
  1812  1070  1096   un
  1813  1071  1074   un
  1814  1071  1090   un
  1815  1071  1097   un
  1816  1071  1143    1
  1817  1071  1155    1
  1818  1072  1081   un
  1819  1072  1098   un
  1820  1072  1131    1
  1821  1072  1144    1
  1822  1073  1080   un
  1823  1073  1087   un
  1824  1073  1133    1
  1825  1073  1148    1
  1826  1073  1154    1
  1827  1074  1097   un
  1828  1074  1155    1
  1829   419  1149    1
  1830   703  1151    1
  1831  1075  1083   un
  1832  1075  1099   un
  1833  1075  1140    1
  1834   704  1078   un
  1835   704  1153    1
  1836  1076  1085   un
  1837  1076  1135    1
  1838  1076  1147    1
  1839  1077  1093   un
  1840  1077  1136    1
  1841  1077  1141    1
  1842  1077  1152    1
  1843  1078   713   un
  1844  1078  1153    1
  1845  1079  1086   un
  1846  1079  1142    1
  1847  1080  1087   un
  1848  1080  1089   un
  1849  1080  1154    1
  1850  1081  1088   un
  1851  1081  1144    1
  1852  1082  1084   un
  1853  1082  1091   un
  1854  1082  1139    1
  1855  1082  1150    1
  1856  1083  1092   un
  1857  1083  1138    1
  1858  1083  1140    1
  1859  1084  1091   un
  1860  1084  1134    1
  1861  1084  1139    1
  1862  1084  1156    1
  1863  1085  1094   un
  1864  1085  1135    1
  1865  1086  1096   un
  1866  1086  1132    1
  1867  1086  1142    1
  1868  1087  1089   un
  1869  1087  1133    1
  1870  1087  1158    1
  1871  1088  1098   un
  1872  1089  1158    1
  1873  1090  1097   un
  1874  1090  1137    1
  1875  1090  1143    1
  1876  1090  1159    1
  1877  1091  1156    1
  1878  1092  1099   un
  1879  1092  1138    1
  1880   721  1146    1
  1881  1093  1095   un
  1882  1093  1136    1
  1883  1093  1157    1
  1884  1095  1157    1
  1885  1096  1132    1
  1886  1097  1159    1
  1887  1098  1131    1
  1888   433  1149    1
  1889   727  1130    1
  1890  1160  1178   un
  1891  1160  1200   un
  1892  1160  1224   un
  1893  1160  1428    1
  1894  1160  1432    1
  1895  1160  1444   un
  1896  1160  1452   un
  1897  1160  1462   un
  1898  1160  1468   un
  1899  1160  1491   un
  1900  1160  1501    1
  1901  1160  1518    1
  1902  1161  1173   un
  1903  1161  1201   un
  1904  1161  1430    1
  1905  1161  1447   un
  1906  1161  1449   un
  1907  1161  1466   un
  1908  1161  1471   un
  1909  1161  1481   un
  1910  1161  1492   un
  1911  1161  1503    1
  1912  1161  1515    1
  1913  1161  1521    1
  1914  1162  1165   un
  1915  1162  1166   un
  1916  1162  1172   un
  1917  1162  1176   un
  1918  1162  1179   un
  1919  1162  1202   un
  1920  1162  1225   un
  1921  1162  1248   un
  1922  1162  1414    1
  1923  1162  1429    1
  1924  1162  1431    1
  1925  1162  1433    1
  1926  1163  1175   un
  1927  1163  1203   un
  1928  1163  1249   un
  1929  1163  1415    1
  1930  1163  1427    1
  1931  1163  1442   un
  1932  1163  1450   un
  1933  1163  1461   un
  1934  1163  1472   un
  1935  1163  1482   un
  1936  1163  1517    1
  1937  1163  1522    1
  1938   304  1180   un
  1939   304  1204   un
  1940   304  1226   un
  1941   304  1493   un
  1942   304  1512    1
  1943  1164  1177   un
  1944  1164  1205   un
  1945  1164  1438   un
  1946  1164  1453   un
  1947  1164  1455   un
  1948  1164  1473   un
  1949  1164  1483   un
  1950  1164  1494   un
  1951  1164  1506    1
  1952  1164  1509    1
  1953  1164  1519    1
  1954  1165  1166   un
  1955  1165  1169   un
  1956  1165  1176   un
  1957  1165  1182   un
  1958  1165  1206   un
  1959  1165  1228   un
  1960  1165  1252   un
  1961  1165  1418    1
  1962  1165  1425    1
  1963  1165  1431    1
  1964  1165  1433    1
  1965   311  1207   un
  1966   311  1253   un
  1967   311  1474   un
  1968   311  1484   un
  1969   311  1511    1
  1970   313  1184   un
  1971   313  1208   un
  1972   313  1230   un
  1973   313  1424    1
  1974   316  1209   un
  1975   316  1426    1
  1976   316  1443   un
  1977   316  1475   un
  1978   316  1485   un
  1979   316  1523    1
  1980  1166  1169   un
  1981  1166  1172   un
  1982  1166  1186   un
  1983  1166  1210   un
  1984  1166  1232   un
  1985  1166  1256   un
  1986  1166  1421    1
  1987  1166  1425    1
  1988  1166  1429    1
  1989  1166  1433    1
  1990  1167  1171   un
  1991  1167  1211   un
  1992  1167  1257   un
  1993  1167  1422    1
  1994  1167  1423    1
  1995  1167  1439   un
  1996  1167  1445   un
  1997  1167  1456   un
  1998  1167  1476   un
  1999  1167  1486   un
  2000  1167  1514    1
  2001  1167  1520    1
  2002  1168  1188   un
  2003  1168  1212   un
  2004  1168  1234   un
  2005  1168  1417    1
  2006  1168  1434    1
  2007  1168  1446   un
  2008  1168  1454   un
  2009  1168  1464   un
  2010  1168  1470   un
  2011  1168  1495   un
  2012  1168  1508    1
  2013  1168  1510    1
  2014   324  1213   un
  2015   324  1496   un
  2016   324  1511    1
  2017  1169  1172   un
  2018  1169  1176   un
  2019  1169  1190   un
  2020  1169  1214   un
  2021  1169  1236   un
  2022  1169  1260   un
  2023  1169  1418    1
  2024  1169  1421    1
  2025  1169  1425    1
  2026  1169  1436    1
  2027   327  1215   un
  2028   327  1261   un
  2029   327  1416    1
  2030   327  1426    1
  2031   327  1443   un
  2032  1170  1192   un
  2033  1170  1216   un
  2034  1170  1238   un
  2035  1170  1420    1
  2036  1170  1437    1
  2037  1170  1441   un
  2038  1170  1451   un
  2039  1170  1460   un
  2040  1170  1467   un
  2041  1170  1497   un
  2042  1170  1504    1
  2043  1170  1513    1
  2044  1171  1217   un
  2045  1171  1422    1
  2046  1171  1439   un
  2047  1171  1456   un
  2048  1171  1469   un
  2049  1171  1477   un
  2050  1171  1487   un
  2051  1171  1498   un
  2052  1171  1502    1
  2053  1171  1514    1
  2054  1171  1525    1
  2055  1172  1176   un
  2056  1172  1194   un
  2057  1172  1218   un
  2058  1172  1240   un
  2059  1172  1264   un
  2060  1172  1414    1
  2061  1172  1421    1
  2062  1172  1429    1
  2063  1172  1436    1
  2064  1173  1219   un
  2065  1173  1265   un
  2066  1173  1419    1
  2067  1173  1430    1
  2068  1173  1449   un
  2069  1173  1457   un
  2070  1173  1466   un
  2071  1173  1478   un
  2072  1173  1488   un
  2073  1173  1503    1
  2074  1173  1526    1
  2075  1174  1196   un
  2076  1174  1220   un
  2077  1174  1242   un
  2078  1174  1413    1
  2079  1174  1435    1
  2080  1174  1440   un
  2081  1174  1448   un
  2082  1174  1458   un
  2083  1174  1465   un
  2084  1174  1499   un
  2085  1174  1507    1
  2086  1174  1516    1
  2087  1175  1221   un
  2088  1175  1415    1
  2089  1175  1442   un
  2090  1175  1459   un
  2091  1175  1461   un
  2092  1175  1479   un
  2093  1175  1489   un
  2094  1175  1500   un
  2095  1175  1505    1
  2096  1175  1517    1
  2097  1175  1527    1
  2098  1176  1198   un
  2099  1176  1222   un
  2100  1176  1244   un
  2101  1176  1266   un
  2102  1176  1414    1
  2103  1176  1418    1
  2104  1176  1431    1
  2105  1176  1436    1
  2106  1177  1223   un
  2107  1177  1267   un
  2108  1177  1412    1
  2109  1177  1438   un
  2110  1177  1455   un
  2111  1177  1463   un
  2112  1177  1480   un
  2113  1177  1490   un
  2114  1177  1506    1
  2115  1177  1524    1
  2116  1178  1340   un
  2117   344  1341   un
  2118  1179  1342   un
  2119   345  1343   un
  2120  1180  1344   un
  2121  1181  1345   un
  2122  1181  1444   un
  2123  1182  1346   un
  2124  1183  1347   un
  2125  1183   310   un
  2126  1184  1348   un
  2127  1185  1349   un
  2128  1185   315   un
  2129  1186  1350   un
  2130  1187  1351   un
  2131  1187  1452   un
  2132  1188  1352   un
  2133  1189  1353   un
  2134  1189  1458   un
  2135  1190  1354   un
  2136  1191  1355   un
  2137  1191  1460   un
  2138  1192  1356   un
  2139  1193  1357   un
  2140  1193  1464   un
  2141  1194  1358   un
  2142  1195  1359   un
  2143  1195  1465   un
  2144  1196  1360   un
  2145  1197  1361   un
  2146  1197  1467   un
  2147  1198  1362   un
  2148  1199  1363   un
  2149  1199  1470   un
  2150  1200  1268   un
  2151  1201  1269   un
  2152  1202  1270   un
  2153  1203  1271   un
  2154  1204  1272   un
  2155  1205  1273   un
  2156  1206  1274   un
  2157  1207  1275   un
  2158  1208  1276   un
  2159  1209  1277   un
  2160  1210  1278   un
  2161  1211  1279   un
  2162  1212  1280   un
  2163  1213  1281   un
  2164  1214  1282   un
  2165  1215  1283   un
  2166  1216  1284   un
  2167  1217  1285   un
  2168  1218  1286   un
  2169  1219  1287   un
  2170  1220  1288   un
  2171  1221  1289   un
  2172  1222  1290   un
  2173  1223  1291   un
  2174  1224  1351   un
  2175   356  1348   un
  2176  1225  1350   un
  2177   357  1349   un
  2178  1226  1343   un
  2179  1227  1340   un
  2180  1227  1444   un
  2181  1228  1342   un
  2182  1229  1341   un
  2183  1229   310   un
  2184  1230  1347   un
  2185  1231  1344   un
  2186  1231   315   un
  2187  1232  1346   un
  2188  1233  1345   un
  2189  1233  1452   un
  2190  1234  1363   un
  2191  1235  1360   un
  2192  1235  1458   un
  2193  1236  1362   un
  2194  1237  1361   un
  2195  1237  1460   un
  2196  1238  1355   un
  2197  1239  1352   un
  2198  1239  1464   un
  2199  1240  1354   un
  2200  1241  1353   un
  2201  1241  1465   un
  2202  1242  1359   un
  2203  1243  1356   un
  2204  1243  1467   un
  2205  1244  1358   un
  2206  1245  1357   un
  2207  1245  1470   un
  2208  1246  1291   un
  2209  1246  1438   un
  2210  1247  1288   un
  2211  1247  1440   un
  2212  1248  1290   un
  2213  1249  1289   un
  2214  1250  1283   un
  2215  1250  1443   un
  2216  1251  1280   un
  2217  1251  1446   un
  2218  1252  1282   un
  2219  1253  1281   un
  2220  1254  1287   un
  2221  1254  1449   un
  2222  1255  1284   un
  2223  1255  1451   un
  2224  1256  1286   un
  2225  1257  1285   un
  2226  1258  1279   un
  2227  1258  1456   un
  2228  1259  1276   un
  2229  1259   323   un
  2230  1260  1278   un
  2231  1261  1277   un
  2232  1262  1271   un
  2233  1262  1461   un
  2234  1263  1268   un
  2235  1263  1462   un
  2236  1264  1270   un
  2237  1265  1269   un
  2238   378  1275   un
  2239   379  1272   un
  2240  1266  1274   un
  2241  1267  1273   un
  2242  1268  1292   un
  2243  1269  1293   un
  2244  1270  1294   un
  2245  1271  1295   un
  2246  1272  1296   un
  2247  1273  1297   un
  2248  1274  1298   un
  2249  1275  1299   un
  2250  1276  1300   un
  2251  1277  1301   un
  2252  1278  1302   un
  2253  1279  1303   un
  2254  1280  1304   un
  2255  1281  1305   un
  2256  1282  1306   un
  2257  1283  1307   un
  2258  1284  1308   un
  2259  1285  1309   un
  2260  1286  1310   un
  2261  1287  1311   un
  2262  1288  1312   un
  2263  1289  1313   un
  2264  1290  1314   un
  2265  1291  1315   un
  2266  1292  1293   un
  2267  1292  1316    1
  2268  1293  1317    1
  2269  1294  1295   un
  2270  1294  1318    1
  2271  1295  1319    1
  2272  1296  1297   un
  2273  1296  1320    1
  2274  1297  1321    1
  2275  1298  1299   un
  2276  1298  1322    1
  2277  1299  1323    1
  2278  1300  1301   un
  2279  1300  1324    1
  2280  1301  1325    1
  2281  1302  1303   un
  2282  1302  1326    1
  2283  1303  1327    1
  2284  1304  1305   un
  2285  1304  1328    1
  2286  1305  1329    1
  2287  1306  1307   un
  2288  1306  1330    1
  2289  1307  1331    1
  2290  1308  1309   un
  2291  1308  1332    1
  2292  1309  1333    1
  2293  1310  1311   un
  2294  1310  1334    1
  2295  1311  1335    1
  2296  1312  1313   un
  2297  1312  1336    1
  2298  1313  1337    1
  2299  1314  1315   un
  2300  1314  1338    1
  2301  1315  1339    1
  2302  1340  1364   un
  2303  1341  1365   un
  2304  1342  1366   un
  2305  1343  1367   un
  2306  1344  1368   un
  2307  1345  1369   un
  2308  1346  1370   un
  2309  1347  1371   un
  2310  1348  1372   un
  2311  1349  1373   un
  2312  1350  1374   un
  2313  1351  1375   un
  2314  1352  1376   un
  2315  1353  1377   un
  2316  1354  1378   un
  2317  1355  1379   un
  2318  1356  1380   un
  2319  1357  1381   un
  2320  1358  1382   un
  2321  1359  1383   un
  2322  1360  1384   un
  2323  1361  1385   un
  2324  1362  1386   un
  2325  1363  1387   un
  2326  1364  1365   un
  2327  1364  1388    1
  2328  1365  1389    1
  2329  1366  1367   un
  2330  1366  1390    1
  2331  1367  1391    1
  2332  1368  1369   un
  2333  1368  1392    1
  2334  1369  1393    1
  2335  1370  1371   un
  2336  1370  1394    1
  2337  1371  1395    1
  2338  1372  1373   un
  2339  1372  1396    1
  2340  1373  1397    1
  2341  1374  1375   un
  2342  1374  1398    1
  2343  1375  1399    1
  2344  1376  1377   un
  2345  1376  1400    1
  2346  1377  1401    1
  2347  1378  1379   un
  2348  1378  1402    1
  2349  1379  1403    1
  2350  1380  1381   un
  2351  1380  1404    1
  2352  1381  1405    1
  2353  1382  1383   un
  2354  1382  1406    1
  2355  1383  1407    1
  2356  1384  1385   un
  2357  1384  1408    1
  2358  1385  1409    1
  2359  1386  1387   un
  2360  1386  1410    1
  2361  1387  1411    1
  2362  1412  1438    1
  2363  1412  1463    1
  2364  1413  1440    1
  2365  1413  1465    1
  2366  1415  1461    1
  2367  1416  1443    1
  2368  1416   340    1
  2369  1417  1446    1
  2370  1417  1470    1
  2371  1419  1449    1
  2372  1419  1457    1
  2373  1420  1451    1
  2374  1420  1460    1
  2375  1422  1456    1
  2376  1423  1445    1
  2377  1423  1456    1
  2378  1424   310    1
  2379  1424   323    1
  2380  1426  1443    1
  2381  1427  1450    1
  2382  1427  1461    1
  2383  1428  1452    1
  2384  1428  1462    1
  2385  1430  1449    1
  2386  1432  1444    1
  2387  1432  1452    1
  2388  1434  1464    1
  2389  1434  1470    1
  2390  1435  1458    1
  2391  1435  1465    1
  2392  1437  1460    1
  2393  1437  1467    1
  2394  1438  1453   un
  2395  1438  1463   un
  2396  1438  1519    1
  2397  1439  1445   un
  2398  1439  1469   un
  2399  1439  1502    1
  2400  1439  1514    1
  2401  1439  1520    1
  2402  1440  1448   un
  2403  1440  1465   un
  2404  1440  1516    1
  2405   303  1443   un
  2406   303  1523    1
  2407  1441  1451   un
  2408  1441  1467   un
  2409  1441  1504    1
  2410  1441  1513    1
  2411  1442  1450   un
  2412  1442  1459   un
  2413  1442  1505    1
  2414  1442  1517    1
  2415  1442  1522    1
  2416  1443   340   un
  2417  1443  1523    1
  2418  1444  1452   un
  2419  1444  1468   un
  2420  1444  1518    1
  2421  1445  1456   un
  2422  1445  1469   un
  2423  1445  1520    1
  2424  1446  1454   un
  2425  1446  1470   un
  2426  1446  1510    1
  2427  1447  1449   un
  2428  1447  1457   un
  2429  1447  1466   un
  2430  1447  1515    1
  2431  1447  1521    1
  2432  1448  1458   un
  2433  1448  1507    1
  2434  1448  1516    1
  2435   706  1511    1
  2436  1449  1457   un
  2437  1449  1521    1
  2438   315  1512    1
  2439  1450  1459   un
  2440  1450  1461   un
  2441  1450  1522    1
  2442  1451  1460   un
  2443  1451  1513    1
  2444  1452  1462   un
  2445  1453  1455   un
  2446  1453  1463   un
  2447  1453  1509    1
  2448  1453  1519    1
  2449  1454  1464   un
  2450  1454  1508    1
  2451  1454  1510    1
  2452  1455  1463   un
  2453  1455  1506    1
  2454  1455  1509    1
  2455  1455  1524    1
  2456  1456  1469   un
  2457  1456  1525    1
  2458  1457  1466   un
  2459  1457  1526    1
  2460  1458  1465   un
  2461  1458  1507    1
  2462   326  1512    1
  2463  1459  1461   un
  2464  1459  1505    1
  2465  1459  1527    1
  2466  1460  1467   un
  2467  1461  1527    1
  2468  1462  1468   un
  2469  1462  1501    1
  2470  1463  1524    1
  2471  1464  1470   un
  2472  1464  1508    1
  2473  1466  1503    1
  2474  1466  1515    1
  2475  1466  1526    1
  2476  1467  1504    1
  2477  1468  1501    1
  2478  1468  1518    1
  2479  1469  1502    1
  2480  1469  1525    1
  2481  1438  1541   un
  2482  1438  1561   un
  2483  1438  1585   un
  2484  1438  1782    1
  2485  1438  1852    1
  2486  1440  1562   un
  2487  1440  1784    1
  2488  1440  1799   un
  2489  1440  1814   un
  2490  1440  1822   un
  2491  1440  1855    1
  2492  1528  1531   un
  2493  1528  1532   un
  2494  1528  1536   un
  2495  1528  1539   un
  2496  1528  1542   un
  2497  1528  1563   un
  2498  1528  1586   un
  2499  1528  1607   un
  2500  1528  1771    1
  2501  1528  1783    1
  2502  1528  1785    1
  2503  1528  1786    1
  2504  1529  1538   un
  2505  1529  1564   un
  2506  1529  1608   un
  2507  1529  1772    1
  2508  1529  1781    1
  2509  1529  1795   un
  2510  1529  1800   un
  2511  1529  1808   un
  2512  1529  1815   un
  2513  1529  1823   un
  2514  1529  1851    1
  2515  1529  1856    1
  2516   701  1543   un
  2517   701  1565   un
  2518   701  1587   un
  2519   701  1830   un
  2520   701  1847    1
  2521  1530  1540   un
  2522  1530  1566   un
  2523  1530  1791   un
  2524  1530  1802   un
  2525  1530  1804   un
  2526  1530  1816   un
  2527  1530  1824   un
  2528  1530  1831   un
  2529  1530  1841    1
  2530  1530  1844    1
  2531  1530  1853    1
  2532  1531  1532   un
  2533  1531  1534   un
  2534  1531  1539   un
  2535  1531  1544   un
  2536  1531  1567   un
  2537  1531  1588   un
  2538  1531  1611   un
  2539  1531  1775    1
  2540  1531  1779    1
  2541  1531  1785    1
  2542  1531  1786    1
  2543   704  1568   un
  2544   704  1612   un
  2545   704  1817   un
  2546   704  1825   un
  2547   704  1846    1
  2548   706  1545   un
  2549   706  1569   un
  2550   706  1589   un
  2551   709  1570   un
  2552   709  1780    1
  2553   709  1796   un
  2554   709  1818   un
  2555   709  1826   un
  2556   709  1857    1
  2557  1532  1534   un
  2558  1532  1536   un
  2559  1532  1547   un
  2560  1532  1571   un
  2561  1532  1591   un
  2562  1532  1615   un
  2563  1532  1778    1
  2564  1532  1779    1
  2565  1532  1783    1
  2566  1532  1786    1
  2567  1454  1572   un
  2568  1454  1616   un
  2569  1454  1792   un
  2570  1454  1819   un
  2571  1454  1827   un
  2572  1454  1849    1
  2573  1454  1854    1
  2574  1533  1549   un
  2575  1533  1573   un
  2576  1533  1593   un
  2577  1533  1774    1
  2578  1533  1787    1
  2579  1533  1797   un
  2580  1533  1803   un
  2581  1533  1810   un
  2582  1533  1813   un
  2583  1533  1832   un
  2584  1533  1843    1
  2585  1533  1845    1
  2586   713  1574   un
  2587   713  1833   un
  2588   713  1846    1
  2589  1534  1536   un
  2590  1534  1539   un
  2591  1534  1551   un
  2592  1534  1575   un
  2593  1534  1595   un
  2594  1534  1617   un
  2595  1534  1775    1
  2596  1534  1778    1
  2597  1534  1779    1
  2598  1534  1789    1
  2599   716  1576   un
  2600   716  1618   un
  2601   716  1773    1
  2602   716  1780    1
  2603   716  1796   un
  2604  1535  1553   un
  2605  1535  1577   un
  2606  1535  1597   un
  2607  1535  1777    1
  2608  1535  1790    1
  2609  1535  1794   un
  2610  1535  1801   un
  2611  1535  1807   un
  2612  1535  1812   un
  2613  1535  1834   un
  2614  1535  1839    1
  2615  1535  1848    1
  2616  1464  1578   un
  2617  1464  1792   un
  2618  1464  1835   un
  2619  1464  1838    1
  2620  1464  1849    1
  2621  1536  1539   un
  2622  1536  1555   un
  2623  1536  1579   un
  2624  1536  1599   un
  2625  1536  1621   un
  2626  1536  1771    1
  2627  1536  1778    1
  2628  1536  1783    1
  2629  1536  1789    1
  2630  1465  1580   un
  2631  1465  1622   un
  2632  1465  1776    1
  2633  1465  1784    1
  2634  1465  1799   un
  2635  1537  1557   un
  2636  1537  1581   un
  2637  1537  1601   un
  2638  1537  1770    1
  2639  1537  1788    1
  2640  1537  1793   un
  2641  1537  1798   un
  2642  1537  1805   un
  2643  1537  1811   un
  2644  1537  1836   un
  2645  1537  1842    1
  2646  1537  1850    1
  2647  1538  1582   un
  2648  1538  1772    1
  2649  1538  1795   un
  2650  1538  1806   un
  2651  1538  1808   un
  2652  1538  1820   un
  2653  1538  1828   un
  2654  1538  1837   un
  2655  1538  1840    1
  2656  1538  1851    1
  2657  1538  1859    1
  2658  1539  1559   un
  2659  1539  1583   un
  2660  1539  1603   un
  2661  1539  1623   un
  2662  1539  1771    1
  2663  1539  1775    1
  2664  1539  1785    1
  2665  1539  1789    1
  2666  1540  1584   un
  2667  1540  1624   un
  2668  1540  1769    1
  2669  1540  1791   un
  2670  1540  1804   un
  2671  1540  1809   un
  2672  1540  1821   un
  2673  1540  1829   un
  2674  1540  1841    1
  2675  1540  1858    1
  2676  1541  1697   un
  2677   728  1698   un
  2678  1542  1699   un
  2679   729  1700   un
  2680  1543  1701   un
  2681  1473  1702   un
  2682  1544  1703   un
  2683  1474  1704   un
  2684  1545  1705   un
  2685  1546  1706   un
  2686  1546   708   un
  2687  1547  1707   un
  2688  1548  1708   un
  2689  1548  1453   un
  2690  1549  1709   un
  2691  1550  1710   un
  2692  1550  1805   un
  2693  1551  1711   un
  2694  1552  1712   un
  2695  1552  1807   un
  2696  1553  1713   un
  2697  1554  1714   un
  2698  1554  1810   un
  2699  1555  1715   un
  2700  1556  1716   un
  2701  1556  1811   un
  2702  1557  1717   un
  2703  1558  1718   un
  2704  1558  1812   un
  2705  1559  1719   un
  2706  1560  1720   un
  2707  1560  1813   un
  2708  1561  1625   un
  2709  1562  1626   un
  2710  1563  1627   un
  2711  1564  1628   un
  2712  1565  1629   un
  2713  1566  1630   un
  2714  1567  1631   un
  2715  1568  1632   un
  2716  1569  1633   un
  2717  1570  1634   un
  2718  1571  1635   un
  2719  1572  1636   un
  2720  1573  1637   un
  2721  1574  1638   un
  2722  1575  1639   un
  2723  1576  1640   un
  2724  1577  1641   un
  2725  1578  1642   un
  2726  1579  1643   un
  2727  1580  1644   un
  2728  1581  1645   un
  2729  1582  1646   un
  2730  1583  1647   un
  2731  1584  1648   un
  2732  1585  1708   un
  2733   738  1705   un
  2734  1586  1707   un
  2735   739  1706   un
  2736  1587  1700   un
  2737  1483  1697   un
  2738  1588  1699   un
  2739  1484  1698   un
  2740  1589  1704   un
  2741  1590  1701   un
  2742  1590   708   un
  2743  1591  1703   un
  2744  1592  1702   un
  2745  1592  1453   un
  2746  1593  1720   un
  2747  1594  1717   un
  2748  1594  1805   un
  2749  1595  1719   un
  2750  1596  1718   un
  2751  1596  1807   un
  2752  1597  1712   un
  2753  1598  1709   un
  2754  1598  1810   un
  2755  1599  1711   un
  2756  1600  1710   un
  2757  1600  1811   un
  2758  1601  1716   un
  2759  1602  1713   un
  2760  1602  1812   un
  2761  1603  1715   un
  2762  1604  1714   un
  2763  1604  1813   un
  2764  1605  1648   un
  2765  1605  1791   un
  2766  1606  1645   un
  2767  1606  1793   un
  2768  1607  1647   un
  2769  1608  1646   un
  2770  1609  1640   un
  2771  1609  1796   un
  2772  1610  1637   un
  2773  1610  1797   un
  2774  1611  1639   un
  2775  1612  1638   un
  2776  1613  1644   un
  2777  1613  1799   un
  2778  1614  1641   un
  2779  1614  1801   un
  2780  1615  1643   un
  2781  1616  1642   un
  2782  1495  1636   un
  2783  1496  1633   un
  2784  1617  1635   un
  2785  1618  1634   un
  2786  1619  1628   un
  2787  1619  1808   un
  2788  1620  1625   un
  2789  1620  1463   un
  2790  1621  1627   un
  2791  1622  1626   un
  2792   756  1632   un
  2793   757  1629   un
  2794  1623  1631   un
  2795  1624  1630   un
  2796  1625  1649   un
  2797  1626  1650   un
  2798  1627  1651   un
  2799  1628  1652   un
  2800  1629  1653   un
  2801  1630  1654   un
  2802  1631  1655   un
  2803  1632  1656   un
  2804  1633  1657   un
  2805  1634  1658   un
  2806  1635  1659   un
  2807  1636  1660   un
  2808  1637  1661   un
  2809  1638  1662   un
  2810  1639  1663   un
  2811  1640  1664   un
  2812  1641  1665   un
  2813  1642  1666   un
  2814  1643  1667   un
  2815  1644  1668   un
  2816  1645  1669   un
  2817  1646  1670   un
  2818  1647  1671   un
  2819  1648  1672   un
  2820  1649  1650   un
  2821  1649  1673    1
  2822  1650  1674    1
  2823  1651  1652   un
  2824  1651  1675    1
  2825  1652  1676    1
  2826  1653  1654   un
  2827  1653  1677    1
  2828  1654  1678    1
  2829  1655  1656   un
  2830  1655  1679    1
  2831  1656  1680    1
  2832  1657  1658   un
  2833  1657  1681    1
  2834  1658  1682    1
  2835  1659  1660   un
  2836  1659  1683    1
  2837  1660  1684    1
  2838  1661  1662   un
  2839  1661  1685    1
  2840  1662  1686    1
  2841  1663  1664   un
  2842  1663  1687    1
  2843  1664  1688    1
  2844  1665  1666   un
  2845  1665  1689    1
  2846  1666  1690    1
  2847  1667  1668   un
  2848  1667  1691    1
  2849  1668  1692    1
  2850  1669  1670   un
  2851  1669  1693    1
  2852  1670  1694    1
  2853  1671  1672   un
  2854  1671  1695    1
  2855  1672  1696    1
  2856  1697  1721   un
  2857  1698  1722   un
  2858  1699  1723   un
  2859  1700  1724   un
  2860  1701  1725   un
  2861  1702  1726   un
  2862  1703  1727   un
  2863  1704  1728   un
  2864  1705  1729   un
  2865  1706  1730   un
  2866  1707  1731   un
  2867  1708  1732   un
  2868  1709  1733   un
  2869  1710  1734   un
  2870  1711  1735   un
  2871  1712  1736   un
  2872  1713  1737   un
  2873  1714  1738   un
  2874  1715  1739   un
  2875  1716  1740   un
  2876  1717  1741   un
  2877  1718  1742   un
  2878  1719  1743   un
  2879  1720  1744   un
  2880  1721  1722   un
  2881  1721  1745    1
  2882  1722  1746    1
  2883  1723  1724   un
  2884  1723  1747    1
  2885  1724  1748    1
  2886  1725  1726   un
  2887  1725  1749    1
  2888  1726  1750    1
  2889  1727  1728   un
  2890  1727  1751    1
  2891  1728  1752    1
  2892  1729  1730   un
  2893  1729  1753    1
  2894  1730  1754    1
  2895  1731  1732   un
  2896  1731  1755    1
  2897  1732  1756    1
  2898  1733  1734   un
  2899  1733  1757    1
  2900  1734  1758    1
  2901  1735  1736   un
  2902  1735  1759    1
  2903  1736  1760    1
  2904  1737  1738   un
  2905  1737  1761    1
  2906  1738  1762    1
  2907  1739  1740   un
  2908  1739  1763    1
  2909  1740  1764    1
  2910  1741  1742   un
  2911  1741  1765    1
  2912  1742  1766    1
  2913  1743  1744   un
  2914  1743  1767    1
  2915  1744  1768    1
  2916  1769  1791    1
  2917  1769  1809    1
  2918  1770  1793    1
  2919  1770  1811    1
  2920  1772  1808    1
  2921  1773  1796    1
  2922  1773   726    1
  2923  1774  1797    1
  2924  1774  1813    1
  2925  1776  1799    1
  2926  1776  1458    1
  2927  1777  1801    1
  2928  1777  1807    1
  2929  1780  1796    1
  2930  1781  1800    1
  2931  1781  1808    1
  2932  1782  1453    1
  2933  1782  1463    1
  2934  1784  1799    1
  2935  1787  1810    1
  2936  1787  1813    1
  2937  1788  1805    1
  2938  1788  1811    1
  2939  1790  1807    1
  2940  1790  1812    1
  2941  1791  1802   un
  2942  1791  1809   un
  2943  1791  1853    1
  2944  1792  1446   un
  2945  1792  1470   un
  2946  1792  1838    1
  2947  1792  1849    1
  2948  1792  1854    1
  2949  1793  1798   un
  2950  1793  1811   un
  2951  1793  1850    1
  2952   700  1796   un
  2953   700  1857    1
  2954  1794  1801   un
  2955  1794  1812   un
  2956  1794  1839    1
  2957  1794  1848    1
  2958  1795  1800   un
  2959  1795  1806   un
  2960  1795  1840    1
  2961  1795  1851    1
  2962  1795  1856    1
  2963  1796   726   un
  2964  1796  1857    1
  2965  1164  1852    1
  2966  1446  1854    1
  2967  1797  1803   un
  2968  1797  1813   un
  2969  1797  1845    1
  2970  1448  1799   un
  2971  1448  1855    1
  2972  1798  1805   un
  2973  1798  1842    1
  2974  1798  1850    1
  2975  1078  1846    1
  2976  1799  1458   un
  2977  1799  1855    1
  2978   708  1847    1
  2979  1800  1806   un
  2980  1800  1808   un
  2981  1800  1856    1
  2982  1801  1807   un
  2983  1801  1848    1
  2984  1802  1804   un
  2985  1802  1809   un
  2986  1802  1844    1
  2987  1802  1853    1
  2988  1803  1810   un
  2989  1803  1843    1
  2990  1803  1845    1
  2991  1804  1809   un
  2992  1804  1841    1
  2993  1804  1844    1
  2994  1804  1858    1
  2995  1805  1811   un
  2996  1805  1842    1
  2997   715  1847    1
  2998  1806  1808   un
  2999  1806  1840    1
  3000  1806  1859    1
  3001  1807  1812   un
  3002  1808  1859    1
  3003  1809  1858    1
  3004  1810  1813   un
  3005  1810  1843    1
  3006  1812  1839    1
  3007  1177  1852    1
  3008  1470  1838    1
  3009  1791  1873   un
  3010  1791  1893   un
  3011  1791  1917   un
  3012  1791  2114    1
  3013  1791  2186    1
  3014  1793  1894   un
  3015  1793  2116    1
  3016  1793  2132   un
  3017  1793  2147   un
  3018  1793  2155   un
  3019  1793  2190    1
  3020  1860  1863   un
  3021  1860  1864   un
  3022  1860  1868   un
  3023  1860  1871   un
  3024  1860  1874   un
  3025  1860  1895   un
  3026  1860  1918   un
  3027  1860  1939   un
  3028  1860  2103    1
  3029  1860  2115    1
  3030  1860  2117    1
  3031  1860  2118    1
  3032  1861  1870   un
  3033  1861  1896   un
  3034  1861  1940   un
  3035  1861  2104    1
  3036  1861  2113    1
  3037  1861  2127   un
  3038  1861  2133   un
  3039  1861  2141   un
  3040  1861  2148   un
  3041  1861  2156   un
  3042  1861  2185    1
  3043  1861  2191    1
  3044  1073  1875   un
  3045  1073  1897   un
  3046  1073  1919   un
  3047  1073  2163   un
  3048  1073  2181    1
  3049  1862  1872   un
  3050  1862  1898   un
  3051  1862  2123   un
  3052  1862  2135   un
  3053  1862  2137   un
  3054  1862  2149   un
  3055  1862  2157   un
  3056  1862  2164   un
  3057  1862  2174    1
  3058  1862  2178    1
  3059  1862  2187    1
  3060  1863  1864   un
  3061  1863  1866   un
  3062  1863  1871   un
  3063  1863  1876   un
  3064  1863  1899   un
  3065  1863  1920   un
  3066  1863  1943   un
  3067  1863  2107    1
  3068  1863  2111    1
  3069  1863  2117    1
  3070  1863  2118    1
  3071  1076  1900   un
  3072  1076  1944   un
  3073  1076  2131   un
  3074  1076  2150   un
  3075  1076  2158   un
  3076  1076  2180    1
  3077  1076  2189    1
  3078  1078  1877   un
  3079  1078  1901   un
  3080  1078  1921   un
  3081  1081  1902   un
  3082  1081  2112    1
  3083  1081  2128   un
  3084  1081  2151   un
  3085  1081  2159   un
  3086  1081  2192    1
  3087  1864  1866   un
  3088  1864  1868   un
  3089  1864  1879   un
  3090  1864  1903   un
  3091  1864  1923   un
  3092  1864  1947   un
  3093  1864  2110    1
  3094  1864  2111    1
  3095  1864  2115    1
  3096  1864  2118    1
  3097  1803  1904   un
  3098  1803  1948   un
  3099  1803  2124   un
  3100  1803  2152   un
  3101  1803  2160   un
  3102  1803  2183    1
  3103  1803  2188    1
  3104  1865  1881   un
  3105  1865  1905   un
  3106  1865  1925   un
  3107  1865  2106    1
  3108  1865  2119    1
  3109  1865  2129   un
  3110  1865  2136   un
  3111  1865  2143   un
  3112  1865  2146   un
  3113  1865  2165   un
  3114  1865  2177    1
  3115  1865  2179    1
  3116  1085  1906   un
  3117  1085  2131   un
  3118  1085  2166   un
  3119  1085  2176    1
  3120  1085  2180    1
  3121  1866  1868   un
  3122  1866  1871   un
  3123  1866  1883   un
  3124  1866  1907   un
  3125  1866  1927   un
  3126  1866  1949   un
  3127  1866  2107    1
  3128  1866  2110    1
  3129  1866  2111    1
  3130  1866  2121    1
  3131  1088  1908   un
  3132  1088  1950   un
  3133  1088  2105    1
  3134  1088  2112    1
  3135  1088  2128   un
  3136  1867  1885   un
  3137  1867  1909   un
  3138  1867  1929   un
  3139  1867  2109    1
  3140  1867  2122    1
  3141  1867  2126   un
  3142  1867  2134   un
  3143  1867  2140   un
  3144  1867  2145   un
  3145  1867  2167   un
  3146  1867  2172    1
  3147  1867  2182    1
  3148  1810  1910   un
  3149  1810  2124   un
  3150  1810  2168   un
  3151  1810  2171    1
  3152  1810  2183    1
  3153  1868  1871   un
  3154  1868  1887   un
  3155  1868  1911   un
  3156  1868  1931   un
  3157  1868  1953   un
  3158  1868  2103    1
  3159  1868  2110    1
  3160  1868  2115    1
  3161  1868  2121    1
  3162  1811  1912   un
  3163  1811  1954   un
  3164  1811  2108    1
  3165  1811  2116    1
  3166  1811  2132   un
  3167  1869  1889   un
  3168  1869  1913   un
  3169  1869  1933   un
  3170  1869  2102    1
  3171  1869  2120    1
  3172  1869  2125   un
  3173  1869  2130   un
  3174  1869  2138   un
  3175  1869  2144   un
  3176  1869  2169   un
  3177  1869  2175    1
  3178  1869  2184    1
  3179  1870  1914   un
  3180  1870  2104    1
  3181  1870  2127   un
  3182  1870  2139   un
  3183  1870  2141   un
  3184  1870  2153   un
  3185  1870  2161   un
  3186  1870  2170   un
  3187  1870  2173    1
  3188  1870  2185    1
  3189  1870  2194    1
  3190  1871  1891   un
  3191  1871  1915   un
  3192  1871  1935   un
  3193  1871  1955   un
  3194  1871  2103    1
  3195  1871  2107    1
  3196  1871  2117    1
  3197  1871  2121    1
  3198  1872  1916   un
  3199  1872  1956   un
  3200  1872  2101    1
  3201  1872  2123   un
  3202  1872  2137   un
  3203  1872  2142   un
  3204  1872  2154   un
  3205  1872  2162   un
  3206  1872  2174    1
  3207  1872  2193    1
  3208  1873  2029   un
  3209  1100  2030   un
  3210  1874  2031   un
  3211  1101  2032   un
  3212  1875  2033   un
  3213  1816  2034   un
  3214  1876  2035   un
  3215  1817  2036   un
  3216  1877  2037   un
  3217  1878  2038   un
  3218  1878  1080   un
  3219  1879  2039   un
  3220  1880  2040   un
  3221  1880  1802   un
  3222  1881  2041   un
  3223  1882  2042   un
  3224  1882  2138   un
  3225  1883  2043   un
  3226  1884  2044   un
  3227  1884  2140   un
  3228  1885  2045   un
  3229  1886  2046   un
  3230  1886  2143   un
  3231  1887  2047   un
  3232  1888  2048   un
  3233  1888  2144   un
  3234  1889  2049   un
  3235  1890  2050   un
  3236  1890  2145   un
  3237  1891  2051   un
  3238  1892  2052   un
  3239  1892  2146   un
  3240  1893  1957   un
  3241  1894  1958   un
  3242  1895  1959   un
  3243  1896  1960   un
  3244  1897  1961   un
  3245  1898  1962   un
  3246  1899  1963   un
  3247  1900  1964   un
  3248  1901  1965   un
  3249  1902  1966   un
  3250  1903  1967   un
  3251  1904  1968   un
  3252  1905  1969   un
  3253  1906  1970   un
  3254  1907  1971   un
  3255  1908  1972   un
  3256  1909  1973   un
  3257  1910  1974   un
  3258  1911  1975   un
  3259  1912  1976   un
  3260  1913  1977   un
  3261  1914  1978   un
  3262  1915  1979   un
  3263  1916  1980   un
  3264  1917  2040   un
  3265  1110  2037   un
  3266  1918  2039   un
  3267  1111  2038   un
  3268  1919  2032   un
  3269  1824  2029   un
  3270  1920  2031   un
  3271  1825  2030   un
  3272  1921  2036   un
  3273  1922  2033   un
  3274  1922  1080   un
  3275  1923  2035   un
  3276  1924  2034   un
  3277  1924  1802   un
  3278  1925  2052   un
  3279  1926  2049   un
  3280  1926  2138   un
  3281  1927  2051   un
  3282  1928  2050   un
  3283  1928  2140   un
  3284  1929  2044   un
  3285  1930  2041   un
  3286  1930  2143   un
  3287  1931  2043   un
  3288  1932  2042   un
  3289  1932  2144   un
  3290  1933  2048   un
  3291  1934  2045   un
  3292  1934  2145   un
  3293  1935  2047   un
  3294  1936  2046   un
  3295  1936  2146   un
  3296  1937  1980   un
  3297  1937  2123   un
  3298  1938  1977   un
  3299  1938  2125   un
  3300  1939  1979   un
  3301  1940  1978   un
  3302  1941  1972   un
  3303  1941  2128   un
  3304  1942  1969   un
  3305  1942  2129   un
  3306  1943  1971   un
  3307  1944  1970   un
  3308  1945  1976   un
  3309  1945  2132   un
  3310  1946  1973   un
  3311  1946  2134   un
  3312  1947  1975   un
  3313  1948  1974   un
  3314  1832  1968   un
  3315  1833  1965   un
  3316  1949  1967   un
  3317  1950  1966   un
  3318  1951  1960   un
  3319  1951  2141   un
  3320  1952  1957   un
  3321  1952  1809   un
  3322  1953  1959   un
  3323  1954  1958   un
  3324  1128  1964   un
  3325  1129  1961   un
  3326  1955  1963   un
  3327  1956  1962   un
  3328  1957  1981   un
  3329  1958  1982   un
  3330  1959  1983   un
  3331  1960  1984   un
  3332  1961  1985   un
  3333  1962  1986   un
  3334  1963  1987   un
  3335  1964  1988   un
  3336  1965  1989   un
  3337  1966  1990   un
  3338  1967  1991   un
  3339  1968  1992   un
  3340  1969  1993   un
  3341  1970  1994   un
  3342  1971  1995   un
  3343  1972  1996   un
  3344  1973  1997   un
  3345  1974  1998   un
  3346  1975  1999   un
  3347  1976  2000   un
  3348  1977  2001   un
  3349  1978  2002   un
  3350  1979  2003   un
  3351  1980  2004   un
  3352  1981  1982   un
  3353  1981  2005    1
  3354  1982  2006    1
  3355  1983  1984   un
  3356  1983  2007    1
  3357  1984  2008    1
  3358  1985  1986   un
  3359  1985  2009    1
  3360  1986  2010    1
  3361  1987  1988   un
  3362  1987  2011    1
  3363  1988  2012    1
  3364  1989  1990   un
  3365  1989  2013    1
  3366  1990  2014    1
  3367  1991  1992   un
  3368  1991  2015    1
  3369  1992  2016    1
  3370  1993  1994   un
  3371  1993  2017    1
  3372  1994  2018    1
  3373  1995  1996   un
  3374  1995  2019    1
  3375  1996  2020    1
  3376  1997  1998   un
  3377  1997  2021    1
  3378  1998  2022    1
  3379  1999  2000   un
  3380  1999  2023    1
  3381  2000  2024    1
  3382  2001  2002   un
  3383  2001  2025    1
  3384  2002  2026    1
  3385  2003  2004   un
  3386  2003  2027    1
  3387  2004  2028    1
  3388  2029  2053   un
  3389  2030  2054   un
  3390  2031  2055   un
  3391  2032  2056   un
  3392  2033  2057   un
  3393  2034  2058   un
  3394  2035  2059   un
  3395  2036  2060   un
  3396  2037  2061   un
  3397  2038  2062   un
  3398  2039  2063   un
  3399  2040  2064   un
  3400  2041  2065   un
  3401  2042  2066   un
  3402  2043  2067   un
  3403  2044  2068   un
  3404  2045  2069   un
  3405  2046  2070   un
  3406  2047  2071   un
  3407  2048  2072   un
  3408  2049  2073   un
  3409  2050  2074   un
  3410  2051  2075   un
  3411  2052  2076   un
  3412  2053  2054   un
  3413  2053  2077    1
  3414  2054  2078    1
  3415  2055  2056   un
  3416  2055  2079    1
  3417  2056  2080    1
  3418  2057  2058   un
  3419  2057  2081    1
  3420  2058  2082    1
  3421  2059  2060   un
  3422  2059  2083    1
  3423  2060  2084    1
  3424  2061  2062   un
  3425  2061  2085    1
  3426  2062  2086    1
  3427  2063  2064   un
  3428  2063  2087    1
  3429  2064  2088    1
  3430  2065  2066   un
  3431  2065  2089    1
  3432  2066  2090    1
  3433  2067  2068   un
  3434  2067  2091    1
  3435  2068  2092    1
  3436  2069  2070   un
  3437  2069  2093    1
  3438  2070  2094    1
  3439  2071  2072   un
  3440  2071  2095    1
  3441  2072  2096    1
  3442  2073  2074   un
  3443  2073  2097    1
  3444  2074  2098    1
  3445  2075  2076   un
  3446  2075  2099    1
  3447  2076  2100    1
  3448  2101  2123    1
  3449  2101  2142    1
  3450  2102  2125    1
  3451  2102  2144    1
  3452  2104  2141    1
  3453  2105  2128    1
  3454  2105  1098    1
  3455  2106  2129    1
  3456  2106  2146    1
  3457  2108  2132    1
  3458  2108  1805    1
  3459  2109  2134    1
  3460  2109  2140    1
  3461  2112  2128    1
  3462  2113  2133    1
  3463  2113  2141    1
  3464  2114  1802    1
  3465  2114  1809    1
  3466  2116  2132    1
  3467  2119  2143    1
  3468  2119  2146    1
  3469  2120  2138    1
  3470  2120  2144    1
  3471  2122  2140    1
  3472  2122  2145    1
  3473  2123  2135   un
  3474  2123  2142   un
  3475  2123  2187    1
  3476  2124  1797   un
  3477  2124  1813   un
  3478  2124  2171    1
  3479  2124  2183    1
  3480  2124  2188    1
  3481  1069  2131   un
  3482  1069  2189    1
  3483  2125  2130   un
  3484  2125  2144   un
  3485  2125  2184    1
  3486  1072  2128   un
  3487  1072  2192    1
  3488  2126  2134   un
  3489  2126  2145   un
  3490  2126  2172    1
  3491  2126  2182    1
  3492  2127  2133   un
  3493  2127  2139   un
  3494  2127  2173    1
  3495  2127  2185    1
  3496  2127  2191    1
  3497  2128  1098   un
  3498  2128  2192    1
  3499  1530  2186    1
  3500  1797  2188    1
  3501  2129  2136   un
  3502  2129  2146   un
  3503  2129  2179    1
  3504  1798  2132   un
  3505  1798  2190    1
  3506  2130  2138   un
  3507  2130  2175    1
  3508  2130  2184    1
  3509  2131  1094   un
  3510  2131  2176    1
  3511  2131  2180    1
  3512  2131  2189    1
  3513  2132  1805   un
  3514  2132  2190    1
  3515  1080  2181    1
  3516  2133  2139   un
  3517  2133  2141   un
  3518  2133  2191    1
  3519  2134  2140   un
  3520  2134  2182    1
  3521  2135  2137   un
  3522  2135  2142   un
  3523  2135  2178    1
  3524  2135  2187    1
  3525  2136  2143   un
  3526  2136  2177    1
  3527  2136  2179    1
  3528  2137  2142   un
  3529  2137  2174    1
  3530  2137  2178    1
  3531  2137  2193    1
  3532  2138  2144   un
  3533  2138  2175    1
  3534  1087  2181    1
  3535  2139  2141   un
  3536  2139  2173    1
  3537  2139  2194    1
  3538  2140  2145   un
  3539  2141  2194    1
  3540  2142  2193    1
  3541  2143  2146   un
  3542  2143  2177    1
  3543  1094  2176    1
  3544  2145  2172    1
  3545  1540  2186    1
  3546  1813  2171    1
  3547  2195  2213   un
  3548  2195  2235   un
  3549  2195  2259   un
  3550  2195  2463    1
  3551  2195  2467    1
  3552  2195  2479   un
  3553  2195  2487   un
  3554  2195  2497   un
  3555  2195  2503   un
  3556  2195  2526   un
  3557  2195  2536    1
  3558  2195  2553    1
  3559  2196  2208   un
  3560  2196  2236   un
  3561  2196  2465    1
  3562  2196  2482   un
  3563  2196  2484   un
  3564  2196  2501   un
  3565  2196  2506   un
  3566  2196  2516   un
  3567  2196  2527   un
  3568  2196  2538    1
  3569  2196  2550    1
  3570  2196  2556    1
  3571  2197  2200   un
  3572  2197  2201   un
  3573  2197  2207   un
  3574  2197  2211   un
  3575  2197  2214   un
  3576  2197  2237   un
  3577  2197  2260   un
  3578  2197  2283   un
  3579  2197  2449    1
  3580  2197  2464    1
  3581  2197  2466    1
  3582  2197  2468    1
  3583  2198  2210   un
  3584  2198  2238   un
  3585  2198  2284   un
  3586  2198  2450    1
  3587  2198  2462    1
  3588  2198  2477   un
  3589  2198  2485   un
  3590  2198  2496   un
  3591  2198  2507   un
  3592  2198  2517   un
  3593  2198  2552    1
  3594  2198  2557    1
  3595  1442  2215   un
  3596  1442  2239   un
  3597  1442  2261   un
  3598  1442  2528   un
  3599  1442  2547    1
  3600  2199  2212   un
  3601  2199  2240   un
  3602  2199  2473   un
  3603  2199  2488   un
  3604  2199  2490   un
  3605  2199  2508   un
  3606  2199  2518   un
  3607  2199  2529   un
  3608  2199  2541    1
  3609  2199  2544    1
  3610  2199  2554    1
  3611  2200  2201   un
  3612  2200  2204   un
  3613  2200  2211   un
  3614  2200  2217   un
  3615  2200  2241   un
  3616  2200  2263   un
  3617  2200  2287   un
  3618  2200  2453    1
  3619  2200  2460    1
  3620  2200  2466    1
  3621  2200  2468    1
  3622  1448  2242   un
  3623  1448  2288   un
  3624  1448  2509   un
  3625  1448  2519   un
  3626  1448  2546    1
  3627  1449  2219   un
  3628  1449  2243   un
  3629  1449  2265   un
  3630  1449  2459    1
  3631  1451  2244   un
  3632  1451  2461    1
  3633  1451  2478   un
  3634  1451  2510   un
  3635  1451  2520   un
  3636  1451  2558    1
  3637  2201  2204   un
  3638  2201  2207   un
  3639  2201  2221   un
  3640  2201  2245   un
  3641  2201  2267   un
  3642  2201  2291   un
  3643  2201  2456    1
  3644  2201  2460    1
  3645  2201  2464    1
  3646  2201  2468    1
  3647  2202  2206   un
  3648  2202  2246   un
  3649  2202  2292   un
  3650  2202  2457    1
  3651  2202  2458    1
  3652  2202  2474   un
  3653  2202  2480   un
  3654  2202  2491   un
  3655  2202  2511   un
  3656  2202  2521   un
  3657  2202  2549    1
  3658  2202  2555    1
  3659  2203  2223   un
  3660  2203  2247   un
  3661  2203  2269   un
  3662  2203  2452    1
  3663  2203  2469    1
  3664  2203  2481   un
  3665  2203  2489   un
  3666  2203  2499   un
  3667  2203  2505   un
  3668  2203  2530   un
  3669  2203  2543    1
  3670  2203  2545    1
  3671  1458  2248   un
  3672  1458  2531   un
  3673  1458  2546    1
  3674  2204  2207   un
  3675  2204  2211   un
  3676  2204  2225   un
  3677  2204  2249   un
  3678  2204  2271   un
  3679  2204  2295   un
  3680  2204  2453    1
  3681  2204  2456    1
  3682  2204  2460    1
  3683  2204  2471    1
  3684  1460  2250   un
  3685  1460  2296   un
  3686  1460  2451    1
  3687  1460  2461    1
  3688  1460  2478   un
  3689  2205  2227   un
  3690  2205  2251   un
  3691  2205  2273   un
  3692  2205  2455    1
  3693  2205  2472    1
  3694  2205  2476   un
  3695  2205  2486   un
  3696  2205  2495   un
  3697  2205  2502   un
  3698  2205  2532   un
  3699  2205  2539    1
  3700  2205  2548    1
  3701  2206  2252   un
  3702  2206  2457    1
  3703  2206  2474   un
  3704  2206  2491   un
  3705  2206  2504   un
  3706  2206  2512   un
  3707  2206  2522   un
  3708  2206  2533   un
  3709  2206  2537    1
  3710  2206  2549    1
  3711  2206  2560    1
  3712  2207  2211   un
  3713  2207  2229   un
  3714  2207  2253   un
  3715  2207  2275   un
  3716  2207  2299   un
  3717  2207  2449    1
  3718  2207  2456    1
  3719  2207  2464    1
  3720  2207  2471    1
  3721  2208  2254   un
  3722  2208  2300   un
  3723  2208  2454    1
  3724  2208  2465    1
  3725  2208  2484   un
  3726  2208  2492   un
  3727  2208  2501   un
  3728  2208  2513   un
  3729  2208  2523   un
  3730  2208  2538    1
  3731  2208  2561    1
  3732  2209  2231   un
  3733  2209  2255   un
  3734  2209  2277   un
  3735  2209  2448    1
  3736  2209  2470    1
  3737  2209  2475   un
  3738  2209  2483   un
  3739  2209  2493   un
  3740  2209  2500   un
  3741  2209  2534   un
  3742  2209  2542    1
  3743  2209  2551    1
  3744  2210  2256   un
  3745  2210  2450    1
  3746  2210  2477   un
  3747  2210  2494   un
  3748  2210  2496   un
  3749  2210  2514   un
  3750  2210  2524   un
  3751  2210  2535   un
  3752  2210  2540    1
  3753  2210  2552    1
  3754  2210  2562    1
  3755  2211  2233   un
  3756  2211  2257   un
  3757  2211  2279   un
  3758  2211  2301   un
  3759  2211  2449    1
  3760  2211  2453    1
  3761  2211  2466    1
  3762  2211  2471    1
  3763  2212  2258   un
  3764  2212  2302   un
  3765  2212  2447    1
  3766  2212  2473   un
  3767  2212  2490   un
  3768  2212  2498   un
  3769  2212  2515   un
  3770  2212  2525   un
  3771  2212  2541    1
  3772  2212  2559    1
  3773  2213  2375   un
  3774  1471  2376   un
  3775  2214  2377   un
  3776  1472  2378   un
  3777  2215  2379   un
  3778  2216  2380   un
  3779  2216  2479   un
  3780  2217  2381   un
  3781  2218  2382   un
  3782  2218  1447   un
  3783  2219  2383   un
  3784  2220  2384   un
  3785  2220  1450   un
  3786  2221  2385   un
  3787  2222  2386   un
  3788  2222  2487   un
  3789  2223  2387   un
  3790  2224  2388   un
  3791  2224  2493   un
  3792  2225  2389   un
  3793  2226  2390   un
  3794  2226  2495   un
  3795  2227  2391   un
  3796  2228  2392   un
  3797  2228  2499   un
  3798  2229  2393   un
  3799  2230  2394   un
  3800  2230  2500   un
  3801  2231  2395   un
  3802  2232  2396   un
  3803  2232  2502   un
  3804  2233  2397   un
  3805  2234  2398   un
  3806  2234  2505   un
  3807  2235  2303   un
  3808  2236  2304   un
  3809  2237  2305   un
  3810  2238  2306   un
  3811  2239  2307   un
  3812  2240  2308   un
  3813  2241  2309   un
  3814  2242  2310   un
  3815  2243  2311   un
  3816  2244  2312   un
  3817  2245  2313   un
  3818  2246  2314   un
  3819  2247  2315   un
  3820  2248  2316   un
  3821  2249  2317   un
  3822  2250  2318   un
  3823  2251  2319   un
  3824  2252  2320   un
  3825  2253  2321   un
  3826  2254  2322   un
  3827  2255  2323   un
  3828  2256  2324   un
  3829  2257  2325   un
  3830  2258  2326   un
  3831  2259  2386   un
  3832  1481  2383   un
  3833  2260  2385   un
  3834  1482  2384   un
  3835  2261  2378   un
  3836  2262  2375   un
  3837  2262  2479   un
  3838  2263  2377   un
  3839  2264  2376   un
  3840  2264  1447   un
  3841  2265  2382   un
  3842  2266  2379   un
  3843  2266  1450   un
  3844  2267  2381   un
  3845  2268  2380   un
  3846  2268  2487   un
  3847  2269  2398   un
  3848  2270  2395   un
  3849  2270  2493   un
  3850  2271  2397   un
  3851  2272  2396   un
  3852  2272  2495   un
  3853  2273  2390   un
  3854  2274  2387   un
  3855  2274  2499   un
  3856  2275  2389   un
  3857  2276  2388   un
  3858  2276  2500   un
  3859  2277  2394   un
  3860  2278  2391   un
  3861  2278  2502   un
  3862  2279  2393   un
  3863  2280  2392   un
  3864  2280  2505   un
  3865  2281  2326   un
  3866  2281  2473   un
  3867  2282  2323   un
  3868  2282  2475   un
  3869  2283  2325   un
  3870  2284  2324   un
  3871  2285  2318   un
  3872  2285  2478   un
  3873  2286  2315   un
  3874  2286  2481   un
  3875  2287  2317   un
  3876  2288  2316   un
  3877  2289  2322   un
  3878  2289  2484   un
  3879  2290  2319   un
  3880  2290  2486   un
  3881  2291  2321   un
  3882  2292  2320   un
  3883  2293  2314   un
  3884  2293  2491   un
  3885  2294  2311   un
  3886  2294  1457   un
  3887  2295  2313   un
  3888  2296  2312   un
  3889  2297  2306   un
  3890  2297  2496   un
  3891  2298  2303   un
  3892  2298  2497   un
  3893  2299  2305   un
  3894  2300  2304   un
  3895  1499  2310   un
  3896  1500  2307   un
  3897  2301  2309   un
  3898  2302  2308   un
  3899  2303  2327   un
  3900  2304  2328   un
  3901  2305  2329   un
  3902  2306  2330   un
  3903  2307  2331   un
  3904  2308  2332   un
  3905  2309  2333   un
  3906  2310  2334   un
  3907  2311  2335   un
  3908  2312  2336   un
  3909  2313  2337   un
  3910  2314  2338   un
  3911  2315  2339   un
  3912  2316  2340   un
  3913  2317  2341   un
  3914  2318  2342   un
  3915  2319  2343   un
  3916  2320  2344   un
  3917  2321  2345   un
  3918  2322  2346   un
  3919  2323  2347   un
  3920  2324  2348   un
  3921  2325  2349   un
  3922  2326  2350   un
  3923  2327  2328   un
  3924  2327  2351    1
  3925  2328  2352    1
  3926  2329  2330   un
  3927  2329  2353    1
  3928  2330  2354    1
  3929  2331  2332   un
  3930  2331  2355    1
  3931  2332  2356    1
  3932  2333  2334   un
  3933  2333  2357    1
  3934  2334  2358    1
  3935  2335  2336   un
  3936  2335  2359    1
  3937  2336  2360    1
  3938  2337  2338   un
  3939  2337  2361    1
  3940  2338  2362    1
  3941  2339  2340   un
  3942  2339  2363    1
  3943  2340  2364    1
  3944  2341  2342   un
  3945  2341  2365    1
  3946  2342  2366    1
  3947  2343  2344   un
  3948  2343  2367    1
  3949  2344  2368    1
  3950  2345  2346   un
  3951  2345  2369    1
  3952  2346  2370    1
  3953  2347  2348   un
  3954  2347  2371    1
  3955  2348  2372    1
  3956  2349  2350   un
  3957  2349  2373    1
  3958  2350  2374    1
  3959  2375  2399   un
  3960  2376  2400   un
  3961  2377  2401   un
  3962  2378  2402   un
  3963  2379  2403   un
  3964  2380  2404   un
  3965  2381  2405   un
  3966  2382  2406   un
  3967  2383  2407   un
  3968  2384  2408   un
  3969  2385  2409   un
  3970  2386  2410   un
  3971  2387  2411   un
  3972  2388  2412   un
  3973  2389  2413   un
  3974  2390  2414   un
  3975  2391  2415   un
  3976  2392  2416   un
  3977  2393  2417   un
  3978  2394  2418   un
  3979  2395  2419   un
  3980  2396  2420   un
  3981  2397  2421   un
  3982  2398  2422   un
  3983  2399  2400   un
  3984  2399  2423    1
  3985  2400  2424    1
  3986  2401  2402   un
  3987  2401  2425    1
  3988  2402  2426    1
  3989  2403  2404   un
  3990  2403  2427    1
  3991  2404  2428    1
  3992  2405  2406   un
  3993  2405  2429    1
  3994  2406  2430    1
  3995  2407  2408   un
  3996  2407  2431    1
  3997  2408  2432    1
  3998  2409  2410   un
  3999  2409  2433    1
  4000  2410  2434    1
  4001  2411  2412   un
  4002  2411  2435    1
  4003  2412  2436    1
  4004  2413  2414   un
  4005  2413  2437    1
  4006  2414  2438    1
  4007  2415  2416   un
  4008  2415  2439    1
  4009  2416  2440    1
  4010  2417  2418   un
  4011  2417  2441    1
  4012  2418  2442    1
  4013  2419  2420   un
  4014  2419  2443    1
  4015  2420  2444    1
  4016  2421  2422   un
  4017  2421  2445    1
  4018  2422  2446    1
  4019  2447  2473    1
  4020  2447  2498    1
  4021  2448  2475    1
  4022  2448  2500    1
  4023  2450  2496    1
  4024  2451  2478    1
  4025  2451  1467    1
  4026  2452  2481    1
  4027  2452  2505    1
  4028  2454  2484    1
  4029  2454  2492    1
  4030  2455  2486    1
  4031  2455  2495    1
  4032  2457  2491    1
  4033  2458  2480    1
  4034  2458  2491    1
  4035  2459  1447    1
  4036  2459  1457    1
  4037  2461  2478    1
  4038  2462  2485    1
  4039  2462  2496    1
  4040  2463  2487    1
  4041  2463  2497    1
  4042  2465  2484    1
  4043  2467  2479    1
  4044  2467  2487    1
  4045  2469  2499    1
  4046  2469  2505    1
  4047  2470  2493    1
  4048  2470  2500    1
  4049  2472  2495    1
  4050  2472  2502    1
  4051  2473  2488   un
  4052  2473  2498   un
  4053  2473  2554    1
  4054  2474  2480   un
  4055  2474  2504   un
  4056  2474  2537    1
  4057  2474  2549    1
  4058  2474  2555    1
  4059  2475  2483   un
  4060  2475  2500   un
  4061  2475  2551    1
  4062  1441  2478   un
  4063  1441  2558    1
  4064  2476  2486   un
  4065  2476  2502   un
  4066  2476  2539    1
  4067  2476  2548    1
  4068  2477  2485   un
  4069  2477  2494   un
  4070  2477  2540    1
  4071  2477  2552    1
  4072  2477  2557    1
  4073  2478  1467   un
  4074  2478  2558    1
  4075  2479  2487   un
  4076  2479  2503   un
  4077  2479  2553    1
  4078  2480  2491   un
  4079  2480  2504   un
  4080  2480  2555    1
  4081  2481  2489   un
  4082  2481  2505   un
  4083  2481  2545    1
  4084  2482  2484   un
  4085  2482  2492   un
  4086  2482  2501   un
  4087  2482  2550    1
  4088  2482  2556    1
  4089  2483  2493   un
  4090  2483  2542    1
  4091  2483  2551    1
  4092  1799  2546    1
  4093  2484  2492   un
  4094  2484  2556    1
  4095  1450  2547    1
  4096  2485  2494   un
  4097  2485  2496   un
  4098  2485  2557    1
  4099  2486  2495   un
  4100  2486  2548    1
  4101  2487  2497   un
  4102  2488  2490   un
  4103  2488  2498   un
  4104  2488  2544    1
  4105  2488  2554    1
  4106  2489  2499   un
  4107  2489  2543    1
  4108  2489  2545    1
  4109  2490  2498   un
  4110  2490  2541    1
  4111  2490  2544    1
  4112  2490  2559    1
  4113  2491  2504   un
  4114  2491  2560    1
  4115  2492  2501   un
  4116  2492  2561    1
  4117  2493  2500   un
  4118  2493  2542    1
  4119  1459  2547    1
  4120  2494  2496   un
  4121  2494  2540    1
  4122  2494  2562    1
  4123  2495  2502   un
  4124  2496  2562    1
  4125  2497  2503   un
  4126  2497  2536    1
  4127  2498  2559    1
  4128  2499  2505   un
  4129  2499  2543    1
  4130  2501  2538    1
  4131  2501  2550    1
  4132  2501  2561    1
  4133  2502  2539    1
  4134  2503  2536    1
  4135  2503  2553    1
  4136  2504  2537    1
  4137  2504  2560    1
  4138  2473  2576   un
  4139  2473  2596   un
  4140  2473  2620   un
  4141  2473  2817    1
  4142  2473  2887    1
  4143  2475  2597   un
  4144  2475  2819    1
  4145  2475  2834   un
  4146  2475  2849   un
  4147  2475  2857   un
  4148  2475  2890    1
  4149  2563  2566   un
  4150  2563  2567   un
  4151  2563  2571   un
  4152  2563  2574   un
  4153  2563  2577   un
  4154  2563  2598   un
  4155  2563  2621   un
  4156  2563  2642   un
  4157  2563  2806    1
  4158  2563  2818    1
  4159  2563  2820    1
  4160  2563  2821    1
  4161  2564  2573   un
  4162  2564  2599   un
  4163  2564  2643   un
  4164  2564  2807    1
  4165  2564  2816    1
  4166  2564  2830   un
  4167  2564  2835   un
  4168  2564  2843   un
  4169  2564  2850   un
  4170  2564  2858   un
  4171  2564  2886    1
  4172  2564  2891    1
  4173  1795  2578   un
  4174  1795  2600   un
  4175  1795  2622   un
  4176  1795  2865   un
  4177  1795  2882    1
  4178  2565  2575   un
  4179  2565  2601   un
  4180  2565  2826   un
  4181  2565  2837   un
  4182  2565  2839   un
  4183  2565  2851   un
  4184  2565  2859   un
  4185  2565  2866   un
  4186  2565  2876    1
  4187  2565  2879    1
  4188  2565  2888    1
  4189  2566  2567   un
  4190  2566  2569   un
  4191  2566  2574   un
  4192  2566  2579   un
  4193  2566  2602   un
  4194  2566  2623   un
  4195  2566  2646   un
  4196  2566  2810    1
  4197  2566  2814    1
  4198  2566  2820    1
  4199  2566  2821    1
  4200  1798  2603   un
  4201  1798  2647   un
  4202  1798  2852   un
  4203  1798  2860   un
  4204  1798  2881    1
  4205  1799  2580   un
  4206  1799  2604   un
  4207  1799  2624   un
  4208  1801  2605   un
  4209  1801  2815    1
  4210  1801  2831   un
  4211  1801  2853   un
  4212  1801  2861   un
  4213  1801  2892    1
  4214  2567  2569   un
  4215  2567  2571   un
  4216  2567  2582   un
  4217  2567  2606   un
  4218  2567  2626   un
  4219  2567  2650   un
  4220  2567  2813    1
  4221  2567  2814    1
  4222  2567  2818    1
  4223  2567  2821    1
  4224  2489  2607   un
  4225  2489  2651   un
  4226  2489  2827   un
  4227  2489  2854   un
  4228  2489  2862   un
  4229  2489  2884    1
  4230  2489  2889    1
  4231  2568  2584   un
  4232  2568  2608   un
  4233  2568  2628   un
  4234  2568  2809    1
  4235  2568  2822    1
  4236  2568  2832   un
  4237  2568  2838   un
  4238  2568  2845   un
  4239  2568  2848   un
  4240  2568  2867   un
  4241  2568  2878    1
  4242  2568  2880    1
  4243  1805  2609   un
  4244  1805  2868   un
  4245  1805  2881    1
  4246  2569  2571   un
  4247  2569  2574   un
  4248  2569  2586   un
  4249  2569  2610   un
  4250  2569  2630   un
  4251  2569  2652   un
  4252  2569  2810    1
  4253  2569  2813    1
  4254  2569  2814    1
  4255  2569  2824    1
  4256  1807  2611   un
  4257  1807  2653   un
  4258  1807  2808    1
  4259  1807  2815    1
  4260  1807  2831   un
  4261  2570  2588   un
  4262  2570  2612   un
  4263  2570  2632   un
  4264  2570  2812    1
  4265  2570  2825    1
  4266  2570  2829   un
  4267  2570  2836   un
  4268  2570  2842   un
  4269  2570  2847   un
  4270  2570  2869   un
  4271  2570  2874    1
  4272  2570  2883    1
  4273  2499  2613   un
  4274  2499  2827   un
  4275  2499  2870   un
  4276  2499  2873    1
  4277  2499  2884    1
  4278  2571  2574   un
  4279  2571  2590   un
  4280  2571  2614   un
  4281  2571  2634   un
  4282  2571  2656   un
  4283  2571  2806    1
  4284  2571  2813    1
  4285  2571  2818    1
  4286  2571  2824    1
  4287  2500  2615   un
  4288  2500  2657   un
  4289  2500  2811    1
  4290  2500  2819    1
  4291  2500  2834   un
  4292  2572  2592   un
  4293  2572  2616   un
  4294  2572  2636   un
  4295  2572  2805    1
  4296  2572  2823    1
  4297  2572  2828   un
  4298  2572  2833   un
  4299  2572  2840   un
  4300  2572  2846   un
  4301  2572  2871   un
  4302  2572  2877    1
  4303  2572  2885    1
  4304  2573  2617   un
  4305  2573  2807    1
  4306  2573  2830   un
  4307  2573  2841   un
  4308  2573  2843   un
  4309  2573  2855   un
  4310  2573  2863   un
  4311  2573  2872   un
  4312  2573  2875    1
  4313  2573  2886    1
  4314  2573  2894    1
  4315  2574  2594   un
  4316  2574  2618   un
  4317  2574  2638   un
  4318  2574  2658   un
  4319  2574  2806    1
  4320  2574  2810    1
  4321  2574  2820    1
  4322  2574  2824    1
  4323  2575  2619   un
  4324  2575  2659   un
  4325  2575  2804    1
  4326  2575  2826   un
  4327  2575  2839   un
  4328  2575  2844   un
  4329  2575  2856   un
  4330  2575  2864   un
  4331  2575  2876    1
  4332  2575  2893    1
  4333  2576  2732   un
  4334  1814  2733   un
  4335  2577  2734   un
  4336  1815  2735   un
  4337  2578  2736   un
  4338  2508  2737   un
  4339  2579  2738   un
  4340  2509  2739   un
  4341  2580  2740   un
  4342  2581  2741   un
  4343  2581  1800   un
  4344  2582  2742   un
  4345  2583  2743   un
  4346  2583  2488   un
  4347  2584  2744   un
  4348  2585  2745   un
  4349  2585  2840   un
  4350  2586  2746   un
  4351  2587  2747   un
  4352  2587  2842   un
  4353  2588  2748   un
  4354  2589  2749   un
  4355  2589  2845   un
  4356  2590  2750   un
  4357  2591  2751   un
  4358  2591  2846   un
  4359  2592  2752   un
  4360  2593  2753   un
  4361  2593  2847   un
  4362  2594  2754   un
  4363  2595  2755   un
  4364  2595  2848   un
  4365  2596  2660   un
  4366  2597  2661   un
  4367  2598  2662   un
  4368  2599  2663   un
  4369  2600  2664   un
  4370  2601  2665   un
  4371  2602  2666   un
  4372  2603  2667   un
  4373  2604  2668   un
  4374  2605  2669   un
  4375  2606  2670   un
  4376  2607  2671   un
  4377  2608  2672   un
  4378  2609  2673   un
  4379  2610  2674   un
  4380  2611  2675   un
  4381  2612  2676   un
  4382  2613  2677   un
  4383  2614  2678   un
  4384  2615  2679   un
  4385  2616  2680   un
  4386  2617  2681   un
  4387  2618  2682   un
  4388  2619  2683   un
  4389  2620  2743   un
  4390  1822  2740   un
  4391  2621  2742   un
  4392  1823  2741   un
  4393  2622  2735   un
  4394  2518  2732   un
  4395  2623  2734   un
  4396  2519  2733   un
  4397  2624  2739   un
  4398  2625  2736   un
  4399  2625  1800   un
  4400  2626  2738   un
  4401  2627  2737   un
  4402  2627  2488   un
  4403  2628  2755   un
  4404  2629  2752   un
  4405  2629  2840   un
  4406  2630  2754   un
  4407  2631  2753   un
  4408  2631  2842   un
  4409  2632  2747   un
  4410  2633  2744   un
  4411  2633  2845   un
  4412  2634  2746   un
  4413  2635  2745   un
  4414  2635  2846   un
  4415  2636  2751   un
  4416  2637  2748   un
  4417  2637  2847   un
  4418  2638  2750   un
  4419  2639  2749   un
  4420  2639  2848   un
  4421  2640  2683   un
  4422  2640  2826   un
  4423  2641  2680   un
  4424  2641  2828   un
  4425  2642  2682   un
  4426  2643  2681   un
  4427  2644  2675   un
  4428  2644  2831   un
  4429  2645  2672   un
  4430  2645  2832   un
  4431  2646  2674   un
  4432  2647  2673   un
  4433  2648  2679   un
  4434  2648  2834   un
  4435  2649  2676   un
  4436  2649  2836   un
  4437  2650  2678   un
  4438  2651  2677   un
  4439  2530  2671   un
  4440  2531  2668   un
  4441  2652  2670   un
  4442  2653  2669   un
  4443  2654  2663   un
  4444  2654  2843   un
  4445  2655  2660   un
  4446  2655  2498   un
  4447  2656  2662   un
  4448  2657  2661   un
  4449  1836  2667   un
  4450  1837  2664   un
  4451  2658  2666   un
  4452  2659  2665   un
  4453  2660  2684   un
  4454  2661  2685   un
  4455  2662  2686   un
  4456  2663  2687   un
  4457  2664  2688   un
  4458  2665  2689   un
  4459  2666  2690   un
  4460  2667  2691   un
  4461  2668  2692   un
  4462  2669  2693   un
  4463  2670  2694   un
  4464  2671  2695   un
  4465  2672  2696   un
  4466  2673  2697   un
  4467  2674  2698   un
  4468  2675  2699   un
  4469  2676  2700   un
  4470  2677  2701   un
  4471  2678  2702   un
  4472  2679  2703   un
  4473  2680  2704   un
  4474  2681  2705   un
  4475  2682  2706   un
  4476  2683  2707   un
  4477  2684  2685   un
  4478  2684  2708    1
  4479  2685  2709    1
  4480  2686  2687   un
  4481  2686  2710    1
  4482  2687  2711    1
  4483  2688  2689   un
  4484  2688  2712    1
  4485  2689  2713    1
  4486  2690  2691   un
  4487  2690  2714    1
  4488  2691  2715    1
  4489  2692  2693   un
  4490  2692  2716    1
  4491  2693  2717    1
  4492  2694  2695   un
  4493  2694  2718    1
  4494  2695  2719    1
  4495  2696  2697   un
  4496  2696  2720    1
  4497  2697  2721    1
  4498  2698  2699   un
  4499  2698  2722    1
  4500  2699  2723    1
  4501  2700  2701   un
  4502  2700  2724    1
  4503  2701  2725    1
  4504  2702  2703   un
  4505  2702  2726    1
  4506  2703  2727    1
  4507  2704  2705   un
  4508  2704  2728    1
  4509  2705  2729    1
  4510  2706  2707   un
  4511  2706  2730    1
  4512  2707  2731    1
  4513  2732  2756   un
  4514  2733  2757   un
  4515  2734  2758   un
  4516  2735  2759   un
  4517  2736  2760   un
  4518  2737  2761   un
  4519  2738  2762   un
  4520  2739  2763   un
  4521  2740  2764   un
  4522  2741  2765   un
  4523  2742  2766   un
  4524  2743  2767   un
  4525  2744  2768   un
  4526  2745  2769   un
  4527  2746  2770   un
  4528  2747  2771   un
  4529  2748  2772   un
  4530  2749  2773   un
  4531  2750  2774   un
  4532  2751  2775   un
  4533  2752  2776   un
  4534  2753  2777   un
  4535  2754  2778   un
  4536  2755  2779   un
  4537  2756  2757   un
  4538  2756  2780    1
  4539  2757  2781    1
  4540  2758  2759   un
  4541  2758  2782    1
  4542  2759  2783    1
  4543  2760  2761   un
  4544  2760  2784    1
  4545  2761  2785    1
  4546  2762  2763   un
  4547  2762  2786    1
  4548  2763  2787    1
  4549  2764  2765   un
  4550  2764  2788    1
  4551  2765  2789    1
  4552  2766  2767   un
  4553  2766  2790    1
  4554  2767  2791    1
  4555  2768  2769   un
  4556  2768  2792    1
  4557  2769  2793    1
  4558  2770  2771   un
  4559  2770  2794    1
  4560  2771  2795    1
  4561  2772  2773   un
  4562  2772  2796    1
  4563  2773  2797    1
  4564  2774  2775   un
  4565  2774  2798    1
  4566  2775  2799    1
  4567  2776  2777   un
  4568  2776  2800    1
  4569  2777  2801    1
  4570  2778  2779   un
  4571  2778  2802    1
  4572  2779  2803    1
  4573  2804  2826    1
  4574  2804  2844    1
  4575  2805  2828    1
  4576  2805  2846    1
  4577  2807  2843    1
  4578  2808  2831    1
  4579  2808  1812    1
  4580  2809  2832    1
  4581  2809  2848    1
  4582  2811  2834    1
  4583  2811  2493    1
  4584  2812  2836    1
  4585  2812  2842    1
  4586  2815  2831    1
  4587  2816  2835    1
  4588  2816  2843    1
  4589  2817  2488    1
  4590  2817  2498    1
  4591  2819  2834    1
  4592  2822  2845    1
  4593  2822  2848    1
  4594  2823  2840    1
  4595  2823  2846    1
  4596  2825  2842    1
  4597  2825  2847    1
  4598  2826  2837   un
  4599  2826  2844   un
  4600  2826  2888    1
  4601  2827  2481   un
  4602  2827  2505   un
  4603  2827  2873    1
  4604  2827  2884    1
  4605  2827  2889    1
  4606  2828  2833   un
  4607  2828  2846   un
  4608  2828  2885    1
  4609  1794  2831   un
  4610  1794  2892    1
  4611  2829  2836   un
  4612  2829  2847   un
  4613  2829  2874    1
  4614  2829  2883    1
  4615  2830  2835   un
  4616  2830  2841   un
  4617  2830  2875    1
  4618  2830  2886    1
  4619  2830  2891    1
  4620  2831  1812   un
  4621  2831  2892    1
  4622  2199  2887    1
  4623  2481  2889    1
  4624  2832  2838   un
  4625  2832  2848   un
  4626  2832  2880    1
  4627  2483  2834   un
  4628  2483  2890    1
  4629  2833  2840   un
  4630  2833  2877    1
  4631  2833  2885    1
  4632  2132  2881    1
  4633  2834  2493   un
  4634  2834  2890    1
  4635  1800  2882    1
  4636  2835  2841   un
  4637  2835  2843   un
  4638  2835  2891    1
  4639  2836  2842   un
  4640  2836  2883    1
  4641  2837  2839   un
  4642  2837  2844   un
  4643  2837  2879    1
  4644  2837  2888    1
  4645  2838  2845   un
  4646  2838  2878    1
  4647  2838  2880    1
  4648  2839  2844   un
  4649  2839  2876    1
  4650  2839  2879    1
  4651  2839  2893    1
  4652  2840  2846   un
  4653  2840  2877    1
  4654  1806  2882    1
  4655  2841  2843   un
  4656  2841  2875    1
  4657  2841  2894    1
  4658  2842  2847   un
  4659  2843  2894    1
  4660  2844  2893    1
  4661  2845  2848   un
  4662  2845  2878    1
  4663  2847  2874    1
  4664  2212  2887    1
  4665  2505  2873    1
  4666  2826  2908   un
  4667  2826  2928   un
  4668  2826  2952   un
  4669  2826  3149    1
  4670  2826  3221    1
  4671  2828  2929   un
  4672  2828  3151    1
  4673  2828  3167   un
  4674  2828  3182   un
  4675  2828  3190   un
  4676  2828  3225    1
  4677  2895  2898   un
  4678  2895  2899   un
  4679  2895  2903   un
  4680  2895  2906   un
  4681  2895  2909   un
  4682  2895  2930   un
  4683  2895  2953   un
  4684  2895  2974   un
  4685  2895  3138    1
  4686  2895  3150    1
  4687  2895  3152    1
  4688  2895  3153    1
  4689  2896  2905   un
  4690  2896  2931   un
  4691  2896  2975   un
  4692  2896  3139    1
  4693  2896  3148    1
  4694  2896  3162   un
  4695  2896  3168   un
  4696  2896  3176   un
  4697  2896  3183   un
  4698  2896  3191   un
  4699  2896  3220    1
  4700  2896  3226    1
  4701  2127  2910   un
  4702  2127  2932   un
  4703  2127  2954   un
  4704  2127  3198   un
  4705  2127  3216    1
  4706  2897  2907   un
  4707  2897  2933   un
  4708  2897  3158   un
  4709  2897  3170   un
  4710  2897  3172   un
  4711  2897  3184   un
  4712  2897  3192   un
  4713  2897  3199   un
  4714  2897  3209    1
  4715  2897  3213    1
  4716  2897  3222    1
  4717  2898  2899   un
  4718  2898  2901   un
  4719  2898  2906   un
  4720  2898  2911   un
  4721  2898  2934   un
  4722  2898  2955   un
  4723  2898  2978   un
  4724  2898  3142    1
  4725  2898  3146    1
  4726  2898  3152    1
  4727  2898  3153    1
  4728  2130  2935   un
  4729  2130  2979   un
  4730  2130  3166   un
  4731  2130  3185   un
  4732  2130  3193   un
  4733  2130  3215    1
  4734  2130  3224    1
  4735  2132  2912   un
  4736  2132  2936   un
  4737  2132  2956   un
  4738  2134  2937   un
  4739  2134  3147    1
  4740  2134  3163   un
  4741  2134  3186   un
  4742  2134  3194   un
  4743  2134  3227    1
  4744  2899  2901   un
  4745  2899  2903   un
  4746  2899  2914   un
  4747  2899  2938   un
  4748  2899  2958   un
  4749  2899  2982   un
  4750  2899  3145    1
  4751  2899  3146    1
  4752  2899  3150    1
  4753  2899  3153    1
  4754  2838  2939   un
  4755  2838  2983   un
  4756  2838  3159   un
  4757  2838  3187   un
  4758  2838  3195   un
  4759  2838  3218    1
  4760  2838  3223    1
  4761  2900  2916   un
  4762  2900  2940   un
  4763  2900  2960   un
  4764  2900  3141    1
  4765  2900  3154    1
  4766  2900  3164   un
  4767  2900  3171   un
  4768  2900  3178   un
  4769  2900  3181   un
  4770  2900  3200   un
  4771  2900  3212    1
  4772  2900  3214    1
  4773  2138  2941   un
  4774  2138  3166   un
  4775  2138  3201   un
  4776  2138  3211    1
  4777  2138  3215    1
  4778  2901  2903   un
  4779  2901  2906   un
  4780  2901  2918   un
  4781  2901  2942   un
  4782  2901  2962   un
  4783  2901  2984   un
  4784  2901  3142    1
  4785  2901  3145    1
  4786  2901  3146    1
  4787  2901  3156    1
  4788  2140  2943   un
  4789  2140  2985   un
  4790  2140  3140    1
  4791  2140  3147    1
  4792  2140  3163   un
  4793  2902  2920   un
  4794  2902  2944   un
  4795  2902  2964   un
  4796  2902  3144    1
  4797  2902  3157    1
  4798  2902  3161   un
  4799  2902  3169   un
  4800  2902  3175   un
  4801  2902  3180   un
  4802  2902  3202   un
  4803  2902  3207    1
  4804  2902  3217    1
  4805  2845  2945   un
  4806  2845  3159   un
  4807  2845  3203   un
  4808  2845  3206    1
  4809  2845  3218    1
  4810  2903  2906   un
  4811  2903  2922   un
  4812  2903  2946   un
  4813  2903  2966   un
  4814  2903  2988   un
  4815  2903  3138    1
  4816  2903  3145    1
  4817  2903  3150    1
  4818  2903  3156    1
  4819  2846  2947   un
  4820  2846  2989   un
  4821  2846  3143    1
  4822  2846  3151    1
  4823  2846  3167   un
  4824  2904  2924   un
  4825  2904  2948   un
  4826  2904  2968   un
  4827  2904  3137    1
  4828  2904  3155    1
  4829  2904  3160   un
  4830  2904  3165   un
  4831  2904  3173   un
  4832  2904  3179   un
  4833  2904  3204   un
  4834  2904  3210    1
  4835  2904  3219    1
  4836  2905  2949   un
  4837  2905  3139    1
  4838  2905  3162   un
  4839  2905  3174   un
  4840  2905  3176   un
  4841  2905  3188   un
  4842  2905  3196   un
  4843  2905  3205   un
  4844  2905  3208    1
  4845  2905  3220    1
  4846  2905  3229    1
  4847  2906  2926   un
  4848  2906  2950   un
  4849  2906  2970   un
  4850  2906  2990   un
  4851  2906  3138    1
  4852  2906  3142    1
  4853  2906  3152    1
  4854  2906  3156    1
  4855  2907  2951   un
  4856  2907  2991   un
  4857  2907  3136    1
  4858  2907  3158   un
  4859  2907  3172   un
  4860  2907  3177   un
  4861  2907  3189   un
  4862  2907  3197   un
  4863  2907  3209    1
  4864  2907  3228    1
  4865  2908  3064   un
  4866  2147  3065   un
  4867  2909  3066   un
  4868  2148  3067   un
  4869  2910  3068   un
  4870  2851  3069   un
  4871  2911  3070   un
  4872  2852  3071   un
  4873  2912  3072   un
  4874  2913  3073   un
  4875  2913  2133   un
  4876  2914  3074   un
  4877  2915  3075   un
  4878  2915  2837   un
  4879  2916  3076   un
  4880  2917  3077   un
  4881  2917  3173   un
  4882  2918  3078   un
  4883  2919  3079   un
  4884  2919  3175   un
  4885  2920  3080   un
  4886  2921  3081   un
  4887  2921  3178   un
  4888  2922  3082   un
  4889  2923  3083   un
  4890  2923  3179   un
  4891  2924  3084   un
  4892  2925  3085   un
  4893  2925  3180   un
  4894  2926  3086   un
  4895  2927  3087   un
  4896  2927  3181   un
  4897  2928  2992   un
  4898  2929  2993   un
  4899  2930  2994   un
  4900  2931  2995   un
  4901  2932  2996   un
  4902  2933  2997   un
  4903  2934  2998   un
  4904  2935  2999   un
  4905  2936  3000   un
  4906  2937  3001   un
  4907  2938  3002   un
  4908  2939  3003   un
  4909  2940  3004   un
  4910  2941  3005   un
  4911  2942  3006   un
  4912  2943  3007   un
  4913  2944  3008   un
  4914  2945  3009   un
  4915  2946  3010   un
  4916  2947  3011   un
  4917  2948  3012   un
  4918  2949  3013   un
  4919  2950  3014   un
  4920  2951  3015   un
  4921  2952  3075   un
  4922  2155  3072   un
  4923  2953  3074   un
  4924  2156  3073   un
  4925  2954  3067   un
  4926  2859  3064   un
  4927  2955  3066   un
  4928  2860  3065   un
  4929  2956  3071   un
  4930  2957  3068   un
  4931  2957  2133   un
  4932  2958  3070   un
  4933  2959  3069   un
  4934  2959  2837   un
  4935  2960  3087   un
  4936  2961  3084   un
  4937  2961  3173   un
  4938  2962  3086   un
  4939  2963  3085   un
  4940  2963  3175   un
  4941  2964  3079   un
  4942  2965  3076   un
  4943  2965  3178   un
  4944  2966  3078   un
  4945  2967  3077   un
  4946  2967  3179   un
  4947  2968  3083   un
  4948  2969  3080   un
  4949  2969  3180   un
  4950  2970  3082   un
  4951  2971  3081   un
  4952  2971  3181   un
  4953  2972  3015   un
  4954  2972  3158   un
  4955  2973  3012   un
  4956  2973  3160   un
  4957  2974  3014   un
  4958  2975  3013   un
  4959  2976  3007   un
  4960  2976  3163   un
  4961  2977  3004   un
  4962  2977  3164   un
  4963  2978  3006   un
  4964  2979  3005   un
  4965  2980  3011   un
  4966  2980  3167   un
  4967  2981  3008   un
  4968  2981  3169   un
  4969  2982  3010   un
  4970  2983  3009   un
  4971  2867  3003   un
  4972  2868  3000   un
  4973  2984  3002   un
  4974  2985  3001   un
  4975  2986  2995   un
  4976  2986  3176   un
  4977  2987  2992   un
  4978  2987  2844   un
  4979  2988  2994   un
  4980  2989  2993   un
  4981  2169  2999   un
  4982  2170  2996   un
  4983  2990  2998   un
  4984  2991  2997   un
  4985  2992  3016   un
  4986  2993  3017   un
  4987  2994  3018   un
  4988  2995  3019   un
  4989  2996  3020   un
  4990  2997  3021   un
  4991  2998  3022   un
  4992  2999  3023   un
  4993  3000  3024   un
  4994  3001  3025   un
  4995  3002  3026   un
  4996  3003  3027   un
  4997  3004  3028   un
  4998  3005  3029   un
  4999  3006  3030   un
  5000  3007  3031   un
  5001  3008  3032   un
  5002  3009  3033   un
  5003  3010  3034   un
  5004  3011  3035   un
  5005  3012  3036   un
  5006  3013  3037   un
  5007  3014  3038   un
  5008  3015  3039   un
  5009  3016  3017   un
  5010  3016  3040    1
  5011  3017  3041    1
  5012  3018  3019   un
  5013  3018  3042    1
  5014  3019  3043    1
  5015  3020  3021   un
  5016  3020  3044    1
  5017  3021  3045    1
  5018  3022  3023   un
  5019  3022  3046    1
  5020  3023  3047    1
  5021  3024  3025   un
  5022  3024  3048    1
  5023  3025  3049    1
  5024  3026  3027   un
  5025  3026  3050    1
  5026  3027  3051    1
  5027  3028  3029   un
  5028  3028  3052    1
  5029  3029  3053    1
  5030  3030  3031   un
  5031  3030  3054    1
  5032  3031  3055    1
  5033  3032  3033   un
  5034  3032  3056    1
  5035  3033  3057    1
  5036  3034  3035   un
  5037  3034  3058    1
  5038  3035  3059    1
  5039  3036  3037   un
  5040  3036  3060    1
  5041  3037  3061    1
  5042  3038  3039   un
  5043  3038  3062    1
  5044  3039  3063    1
  5045  3064  3088   un
  5046  3065  3089   un
  5047  3066  3090   un
  5048  3067  3091   un
  5049  3068  3092   un
  5050  3069  3093   un
  5051  3070  3094   un
  5052  3071  3095   un
  5053  3072  3096   un
  5054  3073  3097   un
  5055  3074  3098   un
  5056  3075  3099   un
  5057  3076  3100   un
  5058  3077  3101   un
  5059  3078  3102   un
  5060  3079  3103   un
  5061  3080  3104   un
  5062  3081  3105   un
  5063  3082  3106   un
  5064  3083  3107   un
  5065  3084  3108   un
  5066  3085  3109   un
  5067  3086  3110   un
  5068  3087  3111   un
  5069  3088  3089   un
  5070  3088  3112    1
  5071  3089  3113    1
  5072  3090  3091   un
  5073  3090  3114    1
  5074  3091  3115    1
  5075  3092  3093   un
  5076  3092  3116    1
  5077  3093  3117    1
  5078  3094  3095   un
  5079  3094  3118    1
  5080  3095  3119    1
  5081  3096  3097   un
  5082  3096  3120    1
  5083  3097  3121    1
  5084  3098  3099   un
  5085  3098  3122    1
  5086  3099  3123    1
  5087  3100  3101   un
  5088  3100  3124    1
  5089  3101  3125    1
  5090  3102  3103   un
  5091  3102  3126    1
  5092  3103  3127    1
  5093  3104  3105   un
  5094  3104  3128    1
  5095  3105  3129    1
  5096  3106  3107   un
  5097  3106  3130    1
  5098  3107  3131    1
  5099  3108  3109   un
  5100  3108  3132    1
  5101  3109  3133    1
  5102  3110  3111   un
  5103  3110  3134    1
  5104  3111  3135    1
  5105  3136  3158    1
  5106  3136  3177    1
  5107  3137  3160    1
  5108  3137  3179    1
  5109  3139  3176    1
  5110  3140  3163    1
  5111  3140  2145    1
  5112  3141  3164    1
  5113  3141  3181    1
  5114  3143  3167    1
  5115  3143  2840    1
  5116  3144  3169    1
  5117  3144  3175    1
  5118  3147  3163    1
  5119  3148  3168    1
  5120  3148  3176    1
  5121  3149  2837    1
  5122  3149  2844    1
  5123  3151  3167    1
  5124  3154  3178    1
  5125  3154  3181    1
  5126  3155  3173    1
  5127  3155  3179    1
  5128  3157  3175    1
  5129  3157  3180    1
  5130  3158  3170   un
  5131  3158  3177   un
  5132  3158  3222    1
  5133  3159  2832   un
  5134  3159  2848   un
  5135  3159  3206    1
  5136  3159  3218    1
  5137  3159  3223    1
  5138  2125  3166   un
  5139  2125  3224    1
  5140  3160  3165   un
  5141  3160  3179   un
  5142  3160  3219    1
  5143  2126  3163   un
  5144  2126  3227    1
  5145  3161  3169   un
  5146  3161  3180   un
  5147  3161  3207    1
  5148  3161  3217    1
  5149  3162  3168   un
  5150  3162  3174   un
  5151  3162  3208    1
  5152  3162  3220    1
  5153  3162  3226    1
  5154  3163  2145   un
  5155  3163  3227    1
  5156  2565  3221    1
  5157  2832  3223    1
  5158  3164  3171   un
  5159  3164  3181   un
  5160  3164  3214    1
  5161  2833  3167   un
  5162  2833  3225    1
  5163  3165  3173   un
  5164  3165  3210    1
  5165  3165  3219    1
  5166  3166  2144   un
  5167  3166  3211    1
  5168  3166  3215    1
  5169  3166  3224    1
  5170  3167  2840   un
  5171  3167  3225    1
  5172  2133  3216    1
  5173  3168  3174   un
  5174  3168  3176   un
  5175  3168  3226    1
  5176  3169  3175   un
  5177  3169  3217    1
  5178  3170  3172   un
  5179  3170  3177   un
  5180  3170  3213    1
  5181  3170  3222    1
  5182  3171  3178   un
  5183  3171  3212    1
  5184  3171  3214    1
  5185  3172  3177   un
  5186  3172  3209    1
  5187  3172  3213    1
  5188  3172  3228    1
  5189  3173  3179   un
  5190  3173  3210    1
  5191  2139  3216    1
  5192  3174  3176   un
  5193  3174  3208    1
  5194  3174  3229    1
  5195  3175  3180   un
  5196  3176  3229    1
  5197  3177  3228    1
  5198  3178  3181   un
  5199  3178  3212    1
  5200  2144  3211    1
  5201  3180  3207    1
  5202  2575  3221    1
  5203  2848  3206    1
  5204   297  3248   un
  5205   297  3270   un
  5206   297  3294   un
  5207   297  3559   un
  5208   297  3586    1
  5209  3230  3245   un
  5210  3230  3271   un
  5211  3230  3497    1
  5212  3230  3517   un
  5213  3230  3520   un
  5214  3230  3534   un
  5215  3230  3539   un
  5216  3230  3549   un
  5217  3230  3560   un
  5218  3230  3570    1
  5219  3230  3583    1
  5220  3230  3589    1
  5221  3231  3232   un
  5222  3231  3236   un
  5223  3231  3244   un
  5224  3231  3247   un
  5225  3231  3250   un
  5226  3231  3272   un
  5227  3231  3296   un
  5228  3231  3318   un
  5229  3231  3483    1
  5230  3231  3496    1
  5231  3231  3500    1
  5232  3231  3502    1
  5233   303  3273   un
  5234   303  3319   un
  5235   303  3540   un
  5236   303  3550   un
  5237   303  3585    1
  5238   305  3252   un
  5239   305  3274   un
  5240   305  3298   un
  5241   305  3499    1
  5242   308  3275   un
  5243   308  3541   un
  5244   308  3551   un
  5245  3232  3236   un
  5246  3232  3240   un
  5247  3232  3247   un
  5248  3232  3254   un
  5249  3232  3276   un
  5250  3232  3300   un
  5251  3232  3322   un
  5252  3232  3486    1
  5253  3232  3494    1
  5254  3232  3500    1
  5255  3232  3502    1
  5256  3233  3239   un
  5257  3233  3277   un
  5258  3233  3323   un
  5259  3233  3487    1
  5260  3233  3498    1
  5261  3233  3509   un
  5262  3233  3519   un
  5263  3233  3533   un
  5264  3233  3542   un
  5265  3233  3552   un
  5266  3233  3578    1
  5267  3233  3588    1
  5268  3234  3256   un
  5269  3234  3278   un
  5270  3234  3302   un
  5271  3234  3493    1
  5272  3234  3501    1
  5273  3234  3508   un
  5274  3234  3516   un
  5275  3234  3524   un
  5276  3234  3530   un
  5277  3234  3561   un
  5278  3234  3573    1
  5279  3234  3582    1
  5280  3235  3241   un
  5281  3235  3279   un
  5282  3235  3495    1
  5283  3235  3511   un
  5284  3235  3513   un
  5285  3235  3528   un
  5286  3235  3543   un
  5287  3235  3553   un
  5288  3235  3562   un
  5289  3235  3575    1
  5290  3235  3579    1
  5291  3235  3590    1
  5292  3236  3240   un
  5293  3236  3244   un
  5294  3236  3257   un
  5295  3236  3280   un
  5296  3236  3303   un
  5297  3236  3326   un
  5298  3236  3490    1
  5299  3236  3494    1
  5300  3236  3496    1
  5301  3236  3502    1
  5302  3237  3243   un
  5303  3237  3281   un
  5304  3237  3327   un
  5305  3237  3491    1
  5306  3237  3492    1
  5307  3237  3507   un
  5308  3237  3514   un
  5309  3237  3523   un
  5310  3237  3544   un
  5311  3237  3554   un
  5312  3237  3581    1
  5313  3237  3587    1
  5314  3238  3258   un
  5315  3238  3282   un
  5316  3238  3304   un
  5317  3238  3485    1
  5318  3238  3503    1
  5319  3238  3515   un
  5320  3238  3522   un
  5321  3238  3529   un
  5322  3238  3538   un
  5323  3238  3563   un
  5324  3238  3576    1
  5325  3238  3577    1
  5326  3239  3283   un
  5327  3239  3487    1
  5328  3239  3519   un
  5329  3239  3531   un
  5330  3239  3533   un
  5331  3239  3545   un
  5332  3239  3555   un
  5333  3239  3564   un
  5334  3239  3574    1
  5335  3239  3578    1
  5336  3239  3592    1
  5337  3240  3244   un
  5338  3240  3247   un
  5339  3240  3260   un
  5340  3240  3284   un
  5341  3240  3306   un
  5342  3240  3330   un
  5343  3240  3486    1
  5344  3240  3490    1
  5345  3240  3494    1
  5346  3240  3505    1
  5347  3241  3285   un
  5348  3241  3331   un
  5349  3241  3484    1
  5350  3241  3495    1
  5351  3241  3513   un
  5352  3241  3528   un
  5353  3241  3535   un
  5354  3241  3546   un
  5355  3241  3556   un
  5356  3241  3575    1
  5357  3241  3594    1
  5358  3242  3262   un
  5359  3242  3286   un
  5360  3242  3308   un
  5361  3242  3489    1
  5362  3242  3506    1
  5363  3242  3512   un
  5364  3242  3521   un
  5365  3242  3527   un
  5366  3242  3536   un
  5367  3242  3565   un
  5368  3242  3571    1
  5369  3242  3580    1
  5370  3243  3287   un
  5371  3243  3491    1
  5372  3243  3507   un
  5373  3243  3523   un
  5374  3243  3537   un
  5375  3243  3547   un
  5376  3243  3557   un
  5377  3243  3566   un
  5378  3243  3569    1
  5379  3243  3581    1
  5380  3243  3591    1
  5381  3244  3247   un
  5382  3244  3264   un
  5383  3244  3288   un
  5384  3244  3310   un
  5385  3244  3332   un
  5386  3244  3483    1
  5387  3244  3490    1
  5388  3244  3496    1
  5389  3244  3505    1
  5390  3245  3289   un
  5391  3245  3333   un
  5392  3245  3488    1
  5393  3245  3497    1
  5394  3245  3520   un
  5395  3245  3525   un
  5396  3245  3534   un
  5397  3245  3548   un
  5398  3245  3558   un
  5399  3245  3570    1
  5400  3245  3593    1
  5401  3246  3266   un
  5402  3246  3290   un
  5403  3246  3312   un
  5404  3246  3482    1
  5405  3246  3504    1
  5406  3246  3510   un
  5407  3246  3518   un
  5408  3246  3526   un
  5409  3246  3532   un
  5410  3246  3567   un
  5411  3246  3572    1
  5412  3246  3584    1
  5413   340  3291   un
  5414   340  3568   un
  5415   340  3585    1
  5416  3247  3268   un
  5417  3247  3292   un
  5418  3247  3314   un
  5419  3247  3336   un
  5420  3247  3483    1
  5421  3247  3486    1
  5422  3247  3500    1
  5423  3247  3505    1
  5424   343  3293   un
  5425   343  3337   un
  5426  3248  3410   un
  5427  3249  3411   un
  5428  3249  3508   un
  5429  3250  3412   un
  5430  3251  3413   un
  5431  3251   302   un
  5432  3252  3414   un
  5433  3253  3415   un
  5434  3253   307   un
  5435  3254  3416   un
  5436  3255  3417   un
  5437  3255  3516   un
  5438  3256  3418   un
  5439   348  3419   un
  5440  3257  3420   un
  5441   349  3421   un
  5442  3258  3422   un
  5443  3259  3423   un
  5444  3259  3526   un
  5445  3260  3424   un
  5446  3261  3425   un
  5447  3261  3527   un
  5448  3262  3426   un
  5449  3263  3427   un
  5450  3263  3529   un
  5451  3264  3428   un
  5452  3265  3429   un
  5453  3265  3532   un
  5454  3266  3430   un
  5455  3267  3431   un
  5456  3267  3536   un
  5457  3268  3432   un
  5458  3269  3433   un
  5459  3269  3538   un
  5460  3270  3338   un
  5461  3271  3339   un
  5462  3272  3340   un
  5463  3273  3341   un
  5464  3274  3342   un
  5465  3275  3343   un
  5466  3276  3344   un
  5467  3277  3345   un
  5468  3278  3346   un
  5469  3279  3347   un
  5470  3280  3348   un
  5471  3281  3349   un
  5472  3282  3350   un
  5473  3283  3351   un
  5474  3284  3352   un
  5475  3285  3353   un
  5476  3286  3354   un
  5477  3287  3355   un
  5478  3288  3356   un
  5479  3289  3357   un
  5480  3290  3358   un
  5481  3291  3359   un
  5482  3292  3360   un
  5483  3293  3361   un
  5484  3294  3421   un
  5485  3295  3418   un
  5486  3295  3508   un
  5487  3296  3420   un
  5488  3297  3419   un
  5489  3297   302   un
  5490  3298  3413   un
  5491  3299  3410   un
  5492  3299   307   un
  5493  3300  3412   un
  5494  3301  3411   un
  5495  3301  3516   un
  5496  3302  3417   un
  5497   360  3414   un
  5498  3303  3416   un
  5499   361  3415   un
  5500  3304  3433   un
  5501  3305  3430   un
  5502  3305  3526   un
  5503  3306  3432   un
  5504  3307  3431   un
  5505  3307  3527   un
  5506  3308  3425   un
  5507  3309  3422   un
  5508  3309  3529   un
  5509  3310  3424   un
  5510  3311  3423   un
  5511  3311  3532   un
  5512  3312  3429   un
  5513  3313  3426   un
  5514  3313  3536   un
  5515  3314  3428   un
  5516  3315  3427   un
  5517  3315  3538   un
  5518  3316  3361   un
  5519  3316   695   un
  5520  3317  3358   un
  5521  3317  3510   un
  5522  3318  3360   un
  5523  3319  3359   un
  5524  3320  3353   un
  5525  3320  3513   un
  5526  3321  3350   un
  5527  3321  3515   un
  5528  3322  3352   un
  5529  3323  3351   un
  5530  3324  3357   un
  5531  3324  3520   un
  5532  3325  3354   un
  5533  3325  3521   un
  5534  3326  3356   un
  5535  3327  3355   un
  5536  3328  3349   un
  5537  3328  3523   un
  5538  3329  3346   un
  5539  3329  3524   un
  5540  3330  3348   un
  5541  3331  3347   un
  5542   376  3341   un
  5543   377  3338   un
  5544  3332  3340   un
  5545  3333  3339   un
  5546  3334  3345   un
  5547  3334  3533   un
  5548  3335  3342   un
  5549  3335   339   un
  5550  3336  3344   un
  5551  3337  3343   un
  5552  3338  3362   un
  5553  3339  3363   un
  5554  3340  3364   un
  5555  3341  3365   un
  5556  3342  3366   un
  5557  3343  3367   un
  5558  3344  3368   un
  5559  3345  3369   un
  5560  3346  3370   un
  5561  3347  3371   un
  5562  3348  3372   un
  5563  3349  3373   un
  5564  3350  3374   un
  5565  3351  3375   un
  5566  3352  3376   un
  5567  3353  3377   un
  5568  3354  3378   un
  5569  3355  3379   un
  5570  3356  3380   un
  5571  3357  3381   un
  5572  3358  3382   un
  5573  3359  3383   un
  5574  3360  3384   un
  5575  3361  3385   un
  5576  3362  3363   un
  5577  3362  3386    1
  5578  3363  3387    1
  5579  3364  3365   un
  5580  3364  3388    1
  5581  3365  3389    1
  5582  3366  3367   un
  5583  3366  3390    1
  5584  3367  3391    1
  5585  3368  3369   un
  5586  3368  3392    1
  5587  3369  3393    1
  5588  3370  3371   un
  5589  3370  3394    1
  5590  3371  3395    1
  5591  3372  3373   un
  5592  3372  3396    1
  5593  3373  3397    1
  5594  3374  3375   un
  5595  3374  3398    1
  5596  3375  3399    1
  5597  3376  3377   un
  5598  3376  3400    1
  5599  3377  3401    1
  5600  3378  3379   un
  5601  3378  3402    1
  5602  3379  3403    1
  5603  3380  3381   un
  5604  3380  3404    1
  5605  3381  3405    1
  5606  3382  3383   un
  5607  3382  3406    1
  5608  3383  3407    1
  5609  3384  3385   un
  5610  3384  3408    1
  5611  3385  3409    1
  5612  3410  3434   un
  5613  3411  3435   un
  5614  3412  3436   un
  5615  3413  3437   un
  5616  3414  3438   un
  5617  3415  3439   un
  5618  3416  3440   un
  5619  3417  3441   un
  5620  3418  3442   un
  5621  3419  3443   un
  5622  3420  3444   un
  5623  3421  3445   un
  5624  3422  3446   un
  5625  3423  3447   un
  5626  3424  3448   un
  5627  3425  3449   un
  5628  3426  3450   un
  5629  3427  3451   un
  5630  3428  3452   un
  5631  3429  3453   un
  5632  3430  3454   un
  5633  3431  3455   un
  5634  3432  3456   un
  5635  3433  3457   un
  5636  3434  3435   un
  5637  3434  3458    1
  5638  3435  3459    1
  5639  3436  3437   un
  5640  3436  3460    1
  5641  3437  3461    1
  5642  3438  3439   un
  5643  3438  3462    1
  5644  3439  3463    1
  5645  3440  3441   un
  5646  3440  3464    1
  5647  3441  3465    1
  5648  3442  3443   un
  5649  3442  3466    1
  5650  3443  3467    1
  5651  3444  3445   un
  5652  3444  3468    1
  5653  3445  3469    1
  5654  3446  3447   un
  5655  3446  3470    1
  5656  3447  3471    1
  5657  3448  3449   un
  5658  3448  3472    1
  5659  3449  3473    1
  5660  3450  3451   un
  5661  3450  3474    1
  5662  3451  3475    1
  5663  3452  3453   un
  5664  3452  3476    1
  5665  3453  3477    1
  5666  3454  3455   un
  5667  3454  3478    1
  5668  3455  3479    1
  5669  3456  3457   un
  5670  3456  3480    1
  5671  3457  3481    1
  5672  3482  3510    1
  5673  3482  3532    1
  5674  3484  3513    1
  5675  3484  3535    1
  5676  3485  3515    1
  5677  3485  3538    1
  5678  3487  3533    1
  5679  3488  3520    1
  5680  3488  3525    1
  5681  3489  3521    1
  5682  3489  3527    1
  5683  3491  3523    1
  5684  3492  3514    1
  5685  3492  3523    1
  5686  3493  3516    1
  5687  3493  3524    1
  5688  3495  3513    1
  5689  3497  3520    1
  5690  3498  3509    1
  5691  3498  3533    1
  5692  3499   302    1
  5693  3499   339    1
  5694  3501  3508    1
  5695  3501  3516    1
  5696  3503  3529    1
  5697  3503  3538    1
  5698  3504  3526    1
  5699  3504  3532    1
  5700  3506  3527    1
  5701  3506  3536    1
  5702  3507  3514   un
  5703  3507  3537   un
  5704  3507  3569    1
  5705  3507  3581    1
  5706  3507  3587    1
  5707  3508  3516   un
  5708  3508  3530   un
  5709  3508  3582    1
  5710  3509  3519   un
  5711  3509  3531   un
  5712  3509  3533   un
  5713  3509  3588    1
  5714  3510  3518   un
  5715  3510  3532   un
  5716  3510  3584    1
  5717  3511  3513   un
  5718  3511  3528   un
  5719  3511  3535   un
  5720  3511  3579    1
  5721  3511  3590    1
  5722  3512  3521   un
  5723  3512  3536   un
  5724  3512  3571    1
  5725  3512  3580    1
  5726  1443  3585    1
  5727  3513  3535   un
  5728  3513  3590    1
  5729   307  3586    1
  5730  3514  3523   un
  5731  3514  3537   un
  5732  3514  3587    1
  5733  3515  3522   un
  5734  3515  3538   un
  5735  3515  3577    1
  5736  3516  3524   un
  5737  3517  3520   un
  5738  3517  3525   un
  5739  3517  3534   un
  5740  3517  3583    1
  5741  3517  3589    1
  5742  3518  3526   un
  5743  3518  3572    1
  5744  3518  3584    1
  5745  3519  3531   un
  5746  3519  3574    1
  5747  3519  3578    1
  5748  3519  3588    1
  5749  3520  3525   un
  5750  3520  3589    1
  5751  3521  3527   un
  5752  3521  3580    1
  5753  3522  3529   un
  5754  3522  3576    1
  5755  3522  3577    1
  5756  3523  3537   un
  5757  3523  3591    1
  5758  3524  3530   un
  5759  3524  3573    1
  5760  3525  3534   un
  5761  3525  3593    1
  5762  3526  3532   un
  5763  3526  3572    1
  5764  3527  3536   un
  5765  3528  3535   un
  5766  3528  3575    1
  5767  3528  3579    1
  5768  3528  3594    1
  5769  3529  3538   un
  5770  3529  3576    1
  5771  3530  3573    1
  5772  3530  3582    1
  5773  3531  3533   un
  5774  3531  3574    1
  5775  3531  3592    1
  5776  3533  3592    1
  5777  3534  3570    1
  5778  3534  3583    1
  5779  3534  3593    1
  5780  3535  3594    1
  5781  3536  3571    1
  5782   342  3586    1
  5783  3537  3569    1
  5784  3537  3591    1
  5785   695  3608   un
  5786   695  3628   un
  5787   695  3652   un
  5788   695  3917    1
  5789  3510  3629   un
  5790  3510  3848    1
  5791  3510  3866   un
  5792  3510  3879   un
  5793  3510  3887   un
  5794  3510  3920    1
  5795  3595  3596   un
  5796  3595  3599   un
  5797  3595  3605   un
  5798  3595  3607   un
  5799  3595  3610   un
  5800  3595  3630   un
  5801  3595  3654   un
  5802  3595  3674   un
  5803  3595  3837    1
  5804  3595  3847    1
  5805  3595  3851    1
  5806  3595  3852    1
  5807   700  3631   un
  5808   700  3675   un
  5809   700  3880   un
  5810   700  3888   un
  5811   700  3916    1
  5812   702  3612   un
  5813   702  3632   un
  5814   702  3656   un
  5815   702  3850    1
  5816   703  3633   un
  5817   703  3881   un
  5818   703  3889   un
  5819  3596  3599   un
  5820  3596  3602   un
  5821  3596  3607   un
  5822  3596  3613   un
  5823  3596  3634   un
  5824  3596  3657   un
  5825  3596  3678   un
  5826  3596  3840    1
  5827  3596  3845    1
  5828  3596  3851    1
  5829  3596  3852    1
  5830  3597  3601   un
  5831  3597  3635   un
  5832  3597  3679   un
  5833  3597  3841    1
  5834  3597  3849    1
  5835  3597  3858   un
  5836  3597  3865   un
  5837  3597  3875   un
  5838  3597  3882   un
  5839  3597  3890   un
  5840  3597  3910    1
  5841  3597  3919    1
  5842  3519  3614   un
  5843  3519  3636   un
  5844  3519  3658   un
  5845  3519  3895   un
  5846  3519  3914    1
  5847  3598  3603   un
  5848  3598  3637   un
  5849  3598  3846    1
  5850  3598  3860   un
  5851  3598  3862   un
  5852  3598  3871   un
  5853  3598  3883   un
  5854  3598  3891   un
  5855  3598  3896   un
  5856  3598  3907    1
  5857  3598  3911    1
  5858  3598  3921    1
  5859  3599  3602   un
  5860  3599  3605   un
  5861  3599  3615   un
  5862  3599  3638   un
  5863  3599  3659   un
  5864  3599  3682   un
  5865  3599  3844    1
  5866  3599  3845    1
  5867  3599  3847    1
  5868  3599  3852    1
  5869  3522  3639   un
  5870  3522  3683   un
  5871  3522  3857   un
  5872  3522  3884   un
  5873  3522  3892   un
  5874  3522  3913    1
  5875  3522  3918    1
  5876  3600  3616   un
  5877  3600  3640   un
  5878  3600  3660   un
  5879  3600  3839    1
  5880  3600  3853    1
  5881  3600  3863   un
  5882  3600  3868   un
  5883  3600  3872   un
  5884  3600  3878   un
  5885  3600  3897   un
  5886  3600  3908    1
  5887  3600  3909    1
  5888  3601  3641   un
  5889  3601  3841    1
  5890  3601  3865   un
  5891  3601  3873   un
  5892  3601  3875   un
  5893  3601  3885   un
  5894  3601  3893   un
  5895  3601  3898   un
  5896  3601  3906    1
  5897  3601  3910    1
  5898  3601  3922    1
  5899  3602  3605   un
  5900  3602  3607   un
  5901  3602  3618   un
  5902  3602  3642   un
  5903  3602  3662   un
  5904  3602  3684   un
  5905  3602  3840    1
  5906  3602  3844    1
  5907  3602  3845    1
  5908  3602  3855    1
  5909  3603  3643   un
  5910  3603  3685   un
  5911  3603  3838    1
  5912  3603  3846    1
  5913  3603  3862   un
  5914  3603  3871   un
  5915  3603  3876   un
  5916  3603  3886   un
  5917  3603  3894   un
  5918  3603  3907    1
  5919  3603  3923    1
  5920  3604  3620   un
  5921  3604  3644   un
  5922  3604  3664   un
  5923  3604  3843    1
  5924  3604  3856    1
  5925  3604  3861   un
  5926  3604  3867   un
  5927  3604  3870   un
  5928  3604  3877   un
  5929  3604  3899   un
  5930  3604  3904    1
  5931  3604  3912    1
  5932  3529  3645   un
  5933  3529  3857   un
  5934  3529  3900   un
  5935  3529  3903    1
  5936  3529  3913    1
  5937  3605  3607   un
  5938  3605  3622   un
  5939  3605  3646   un
  5940  3605  3666   un
  5941  3605  3686   un
  5942  3605  3837    1
  5943  3605  3844    1
  5944  3605  3847    1
  5945  3605  3855    1
  5946  3532  3647   un
  5947  3532  3687   un
  5948  3532  3842    1
  5949  3532  3848    1
  5950  3532  3866   un
  5951  3606  3624   un
  5952  3606  3648   un
  5953  3606  3668   un
  5954  3606  3836    1
  5955  3606  3854    1
  5956  3606  3859   un
  5957  3606  3864   un
  5958  3606  3869   un
  5959  3606  3874   un
  5960  3606  3901   un
  5961  3606  3905    1
  5962  3606  3915    1
  5963   726  3649   un
  5964   726  3902   un
  5965   726  3916    1
  5966  3607  3626   un
  5967  3607  3650   un
  5968  3607  3670   un
  5969  3607  3690   un
  5970  3607  3837    1
  5971  3607  3840    1
  5972  3607  3851    1
  5973  3607  3855    1
  5974   727  3651   un
  5975   727  3691   un
  5976  3608  3764   un
  5977  3609  3765   un
  5978  3609  3509   un
  5979  3610  3766   un
  5980  3611  3767   un
  5981  3611   699   un
  5982  3612  3768   un
  5983  3541  3769   un
  5984  3613  3770   un
  5985  3542  3771   un
  5986  3614  3772   un
  5987   732  3773   un
  5988  3615  3774   un
  5989   733  3775   un
  5990  3616  3776   un
  5991  3617  3777   un
  5992  3617  3869   un
  5993  3618  3778   un
  5994  3619  3779   un
  5995  3619  3870   un
  5996  3620  3780   un
  5997  3621  3781   un
  5998  3621  3872   un
  5999  3622  3782   un
  6000  3623  3783   un
  6001  3623  3874   un
  6002  3624  3784   un
  6003  3625  3785   un
  6004  3625  3877   un
  6005  3626  3786   un
  6006  3627  3787   un
  6007  3627  3878   un
  6008  3628  3692   un
  6009  3629  3693   un
  6010  3630  3694   un
  6011  3631  3695   un
  6012  3632  3696   un
  6013  3633  3697   un
  6014  3634  3698   un
  6015  3635  3699   un
  6016  3636  3700   un
  6017  3637  3701   un
  6018  3638  3702   un
  6019  3639  3703   un
  6020  3640  3704   un
  6021  3641  3705   un
  6022  3642  3706   un
  6023  3643  3707   un
  6024  3644  3708   un
  6025  3645  3709   un
  6026  3646  3710   un
  6027  3647  3711   un
  6028  3648  3712   un
  6029  3649  3713   un
  6030  3650  3714   un
  6031  3651  3715   un
  6032  3652  3775   un
  6033  3653  3772   un
  6034  3653  3509   un
  6035  3654  3774   un
  6036  3655  3773   un
  6037  3655   699   un
  6038  3656  3767   un
  6039  3551  3764   un
  6040  3657  3766   un
  6041  3552  3765   un
  6042  3658  3771   un
  6043   742  3768   un
  6044  3659  3770   un
  6045   743  3769   un
  6046  3660  3787   un
  6047  3661  3784   un
  6048  3661  3869   un
  6049  3662  3786   un
  6050  3663  3785   un
  6051  3663  3870   un
  6052  3664  3779   un
  6053  3665  3776   un
  6054  3665  3872   un
  6055  3666  3778   un
  6056  3667  3777   un
  6057  3667  3874   un
  6058  3668  3783   un
  6059  3669  3780   un
  6060  3669  3877   un
  6061  3670  3782   un
  6062  3671  3781   un
  6063  3671  3878   un
  6064  3672  3715   un
  6065  3672  1067   un
  6066  3673  3712   un
  6067  3673  3859   un
  6068  3674  3714   un
  6069  3675  3713   un
  6070  3676  3707   un
  6071  3676  3862   un
  6072  3677  3704   un
  6073  3677  3863   un
  6074  3678  3706   un
  6075  3679  3705   un
  6076  3680  3711   un
  6077  3680  3866   un
  6078  3681  3708   un
  6079  3681  3867   un
  6080  3682  3710   un
  6081  3683  3709   un
  6082  3563  3703   un
  6083  3564  3700   un
  6084  3684  3702   un
  6085  3685  3701   un
  6086   754  3695   un
  6087   755  3692   un
  6088  3686  3694   un
  6089  3687  3693   un
  6090  3688  3699   un
  6091  3688  3875   un
  6092  3689  3696   un
  6093  3689   725   un
  6094  3690  3698   un
  6095  3691  3697   un
  6096  3692  3716   un
  6097  3693  3717   un
  6098  3694  3718   un
  6099  3695  3719   un
  6100  3696  3720   un
  6101  3697  3721   un
  6102  3698  3722   un
  6103  3699  3723   un
  6104  3700  3724   un
  6105  3701  3725   un
  6106  3702  3726   un
  6107  3703  3727   un
  6108  3704  3728   un
  6109  3705  3729   un
  6110  3706  3730   un
  6111  3707  3731   un
  6112  3708  3732   un
  6113  3709  3733   un
  6114  3710  3734   un
  6115  3711  3735   un
  6116  3712  3736   un
  6117  3713  3737   un
  6118  3714  3738   un
  6119  3715  3739   un
  6120  3716  3717   un
  6121  3716  3740    1
  6122  3717  3741    1
  6123  3718  3719   un
  6124  3718  3742    1
  6125  3719  3743    1
  6126  3720  3721   un
  6127  3720  3744    1
  6128  3721  3745    1
  6129  3722  3723   un
  6130  3722  3746    1
  6131  3723  3747    1
  6132  3724  3725   un
  6133  3724  3748    1
  6134  3725  3749    1
  6135  3726  3727   un
  6136  3726  3750    1
  6137  3727  3751    1
  6138  3728  3729   un
  6139  3728  3752    1
  6140  3729  3753    1
  6141  3730  3731   un
  6142  3730  3754    1
  6143  3731  3755    1
  6144  3732  3733   un
  6145  3732  3756    1
  6146  3733  3757    1
  6147  3734  3735   un
  6148  3734  3758    1
  6149  3735  3759    1
  6150  3736  3737   un
  6151  3736  3760    1
  6152  3737  3761    1
  6153  3738  3739   un
  6154  3738  3762    1
  6155  3739  3763    1
  6156  3764  3788   un
  6157  3765  3789   un
  6158  3766  3790   un
  6159  3767  3791   un
  6160  3768  3792   un
  6161  3769  3793   un
  6162  3770  3794   un
  6163  3771  3795   un
  6164  3772  3796   un
  6165  3773  3797   un
  6166  3774  3798   un
  6167  3775  3799   un
  6168  3776  3800   un
  6169  3777  3801   un
  6170  3778  3802   un
  6171  3779  3803   un
  6172  3780  3804   un
  6173  3781  3805   un
  6174  3782  3806   un
  6175  3783  3807   un
  6176  3784  3808   un
  6177  3785  3809   un
  6178  3786  3810   un
  6179  3787  3811   un
  6180  3788  3789   un
  6181  3788  3812    1
  6182  3789  3813    1
  6183  3790  3791   un
  6184  3790  3814    1
  6185  3791  3815    1
  6186  3792  3793   un
  6187  3792  3816    1
  6188  3793  3817    1
  6189  3794  3795   un
  6190  3794  3818    1
  6191  3795  3819    1
  6192  3796  3797   un
  6193  3796  3820    1
  6194  3797  3821    1
  6195  3798  3799   un
  6196  3798  3822    1
  6197  3799  3823    1
  6198  3800  3801   un
  6199  3800  3824    1
  6200  3801  3825    1
  6201  3802  3803   un
  6202  3802  3826    1
  6203  3803  3827    1
  6204  3804  3805   un
  6205  3804  3828    1
  6206  3805  3829    1
  6207  3806  3807   un
  6208  3806  3830    1
  6209  3807  3831    1
  6210  3808  3809   un
  6211  3808  3832    1
  6212  3809  3833    1
  6213  3810  3811   un
  6214  3810  3834    1
  6215  3811  3835    1
  6216  3836  3859    1
  6217  3836  3874    1
  6218  3838  3862    1
  6219  3838  3876    1
  6220  3839  3863    1
  6221  3839  3878    1
  6222  3841  3875    1
  6223  3842  3866    1
  6224  3842  3526    1
  6225  3843  3867    1
  6226  3843  3870    1
  6227  3846  3862    1
  6228  3848  3866    1
  6229  3849  3858    1
  6230  3849  3875    1
  6231  3850   699    1
  6232  3850   725    1
  6233  3853  3872    1
  6234  3853  3878    1
  6235  3854  3869    1
  6236  3854  3874    1
  6237  3856  3870    1
  6238  3856  3877    1
  6239  3857  3515   un
  6240  3857  3538   un
  6241  3857  3903    1
  6242  3857  3913    1
  6243  3857  3918    1
  6244  3509  3914    1
  6245  3858  3865   un
  6246  3858  3873   un
  6247  3858  3875   un
  6248  3858  3919    1
  6249  3859  3864   un
  6250  3859  3874   un
  6251  3859  3915    1
  6252  3860  3862   un
  6253  3860  3871   un
  6254  3860  3876   un
  6255  3860  3911    1
  6256  3860  3921    1
  6257  3861  3867   un
  6258  3861  3877   un
  6259  3861  3904    1
  6260  3861  3912    1
  6261  1796  3916    1
  6262  3862  3876   un
  6263  3862  3921    1
  6264   308  3917    1
  6265  3515  3918    1
  6266  3863  3868   un
  6267  3863  3878   un
  6268  3863  3909    1
  6269  3518  3866   un
  6270  3518  3920    1
  6271  3864  3869   un
  6272  3864  3905    1
  6273  3864  3915    1
  6274  3865  3873   un
  6275  3865  3906    1
  6276  3865  3910    1
  6277  3865  3919    1
  6278  3866  3526   un
  6279  3866  3920    1
  6280  3867  3870   un
  6281  3867  3912    1
  6282  3868  3872   un
  6283  3868  3908    1
  6284  3868  3909    1
  6285  3869  3874   un
  6286  3869  3905    1
  6287  3870  3877   un
  6288  3871  3876   un
  6289  3871  3907    1
  6290  3871  3911    1
  6291  3871  3923    1
  6292  3872  3878   un
  6293  3872  3908    1
  6294  3531  3914    1
  6295  3873  3875   un
  6296  3873  3906    1
  6297  3873  3922    1
  6298  3875  3922    1
  6299  3876  3923    1
  6300  3877  3904    1
  6301   343  3917    1
  6302  3538  3903    1
  6303  1067  3937   un
  6304  1067  3957   un
  6305  1067  3981   un
  6306  1067  4248    1
  6307  3859  3958   un
  6308  3859  4178    1
  6309  3859  4197   un
  6310  3859  4210   un
  6311  3859  4218   un
  6312  3859  4252    1
  6313  3924  3925   un
  6314  3924  3928   un
  6315  3924  3934   un
  6316  3924  3936   un
  6317  3924  3939   un
  6318  3924  3959   un
  6319  3924  3983   un
  6320  3924  4003   un
  6321  3924  4167    1
  6322  3924  4177    1
  6323  3924  4181    1
  6324  3924  4182    1
  6325  1072  3960   un
  6326  1072  4004   un
  6327  1072  4211   un
  6328  1072  4219   un
  6329  1072  4247    1
  6330  1074  3941   un
  6331  1074  3961   un
  6332  1074  3985   un
  6333  1074  4180    1
  6334  1075  3962   un
  6335  1075  4187   un
  6336  1075  4212   un
  6337  1075  4220   un
  6338  1075  4249    1
  6339  3925  3928   un
  6340  3925  3931   un
  6341  3925  3936   un
  6342  3925  3942   un
  6343  3925  3963   un
  6344  3925  3986   un
  6345  3925  4007   un
  6346  3925  4170    1
  6347  3925  4175    1
  6348  3925  4181    1
  6349  3925  4182    1
  6350  3926  3930   un
  6351  3926  3964   un
  6352  3926  4008   un
  6353  3926  4171    1
  6354  3926  4179    1
  6355  3926  4189   un
  6356  3926  4196   un
  6357  3926  4206   un
  6358  3926  4213   un
  6359  3926  4221   un
  6360  3926  4241    1
  6361  3926  4251    1
  6362  3865  3943   un
  6363  3865  3965   un
  6364  3865  3987   un
  6365  3865  4226   un
  6366  3865  4245    1
  6367  3927  3932   un
  6368  3927  3966   un
  6369  3927  4176    1
  6370  3927  4191   un
  6371  3927  4193   un
  6372  3927  4202   un
  6373  3927  4214   un
  6374  3927  4222   un
  6375  3927  4227   un
  6376  3927  4238    1
  6377  3927  4242    1
  6378  3927  4253    1
  6379  3928  3931   un
  6380  3928  3934   un
  6381  3928  3944   un
  6382  3928  3967   un
  6383  3928  3988   un
  6384  3928  4011   un
  6385  3928  4174    1
  6386  3928  4175    1
  6387  3928  4177    1
  6388  3928  4182    1
  6389  3868  3968   un
  6390  3868  4012   un
  6391  3868  4188   un
  6392  3868  4215   un
  6393  3868  4223   un
  6394  3868  4244    1
  6395  3868  4250    1
  6396  3929  3945   un
  6397  3929  3969   un
  6398  3929  3989   un
  6399  3929  4169    1
  6400  3929  4183    1
  6401  3929  4194   un
  6402  3929  4199   un
  6403  3929  4203   un
  6404  3929  4209   un
  6405  3929  4228   un
  6406  3929  4239    1
  6407  3929  4240    1
  6408  3930  3970   un
  6409  3930  4171    1
  6410  3930  4196   un
  6411  3930  4204   un
  6412  3930  4206   un
  6413  3930  4216   un
  6414  3930  4224   un
  6415  3930  4229   un
  6416  3930  4237    1
  6417  3930  4241    1
  6418  3930  4254    1
  6419  3931  3934   un
  6420  3931  3936   un
  6421  3931  3947   un
  6422  3931  3971   un
  6423  3931  3991   un
  6424  3931  4013   un
  6425  3931  4170    1
  6426  3931  4174    1
  6427  3931  4175    1
  6428  3931  4185    1
  6429  3932  3972   un
  6430  3932  4014   un
  6431  3932  4168    1
  6432  3932  4176    1
  6433  3932  4193   un
  6434  3932  4202   un
  6435  3932  4207   un
  6436  3932  4217   un
  6437  3932  4225   un
  6438  3932  4238    1
  6439  3932  4255    1
  6440  3933  3949   un
  6441  3933  3973   un
  6442  3933  3993   un
  6443  3933  4173    1
  6444  3933  4186    1
  6445  3933  4192   un
  6446  3933  4198   un
  6447  3933  4201   un
  6448  3933  4208   un
  6449  3933  4230   un
  6450  3933  4235    1
  6451  3933  4243    1
  6452  3872  3974   un
  6453  3872  4188   un
  6454  3872  4231   un
  6455  3872  4234    1
  6456  3872  4244    1
  6457  3934  3936   un
  6458  3934  3951   un
  6459  3934  3975   un
  6460  3934  3995   un
  6461  3934  4015   un
  6462  3934  4167    1
  6463  3934  4174    1
  6464  3934  4177    1
  6465  3934  4185    1
  6466  3874  3976   un
  6467  3874  4016   un
  6468  3874  4172    1
  6469  3874  4178    1
  6470  3874  4197   un
  6471  3935  3953   un
  6472  3935  3977   un
  6473  3935  3997   un
  6474  3935  4166    1
  6475  3935  4184    1
  6476  3935  4190   un
  6477  3935  4195   un
  6478  3935  4200   un
  6479  3935  4205   un
  6480  3935  4232   un
  6481  3935  4236    1
  6482  3935  4246    1
  6483  1098  3978   un
  6484  1098  4233   un
  6485  1098  4247    1
  6486  3936  3955   un
  6487  3936  3979   un
  6488  3936  3999   un
  6489  3936  4019   un
  6490  3936  4167    1
  6491  3936  4170    1
  6492  3936  4181    1
  6493  3936  4185    1
  6494  1099  3980   un
  6495  1099  4020   un
  6496  1099  4165    1
  6497  1099  4187   un
  6498  3937  4093   un
  6499  3938  4094   un
  6500  3938  3858   un
  6501  3939  4095   un
  6502  3940  4096   un
  6503  3940  1071   un
  6504  3941  4097   un
  6505  3881  4098   un
  6506  3942  4099   un
  6507  3882  4100   un
  6508  3943  4101   un
  6509  1104  4102   un
  6510  3944  4103   un
  6511  1105  4104   un
  6512  3945  4105   un
  6513  3946  4106   un
  6514  3946  4200   un
  6515  3947  4107   un
  6516  3948  4108   un
  6517  3948  4201   un
  6518  3949  4109   un
  6519  3950  4110   un
  6520  3950  4203   un
  6521  3951  4111   un
  6522  3952  4112   un
  6523  3952  4205   un
  6524  3953  4113   un
  6525  3954  4114   un
  6526  3954  4208   un
  6527  3955  4115   un
  6528  3956  4116   un
  6529  3956  4209   un
  6530  3957  4021   un
  6531  3958  4022   un
  6532  3959  4023   un
  6533  3960  4024   un
  6534  3961  4025   un
  6535  3962  4026   un
  6536  3963  4027   un
  6537  3964  4028   un
  6538  3965  4029   un
  6539  3966  4030   un
  6540  3967  4031   un
  6541  3968  4032   un
  6542  3969  4033   un
  6543  3970  4034   un
  6544  3971  4035   un
  6545  3972  4036   un
  6546  3973  4037   un
  6547  3974  4038   un
  6548  3975  4039   un
  6549  3976  4040   un
  6550  3977  4041   un
  6551  3978  4042   un
  6552  3979  4043   un
  6553  3980  4044   un
  6554  3981  4104   un
  6555  3982  4101   un
  6556  3982  3858   un
  6557  3983  4103   un
  6558  3984  4102   un
  6559  3984  1071   un
  6560  3985  4096   un
  6561  3889  4093   un
  6562  3986  4095   un
  6563  3890  4094   un
  6564  3987  4100   un
  6565  1114  4097   un
  6566  3988  4099   un
  6567  1115  4098   un
  6568  3989  4116   un
  6569  3990  4113   un
  6570  3990  4200   un
  6571  3991  4115   un
  6572  3992  4114   un
  6573  3992  4201   un
  6574  3993  4108   un
  6575  3994  4105   un
  6576  3994  4203   un
  6577  3995  4107   un
  6578  3996  4106   un
  6579  3996  4205   un
  6580  3997  4112   un
  6581  3998  4109   un
  6582  3998  4208   un
  6583  3999  4111   un
  6584  4000  4110   un
  6585  4000  4209   un
  6586  4001  4044   un
  6587  4001  4187   un
  6588  4002  4041   un
  6589  4002  4190   un
  6590  4003  4043   un
  6591  4004  4042   un
  6592  4005  4036   un
  6593  4005  4193   un
  6594  4006  4033   un
  6595  4006  4194   un
  6596  4007  4035   un
  6597  4008  4034   un
  6598  4009  4040   un
  6599  4009  4197   un
  6600  4010  4037   un
  6601  4010  4198   un
  6602  4011  4039   un
  6603  4012  4038   un
  6604  3897  4032   un
  6605  3898  4029   un
  6606  4013  4031   un
  6607  4014  4030   un
  6608  1126  4024   un
  6609  1127  4021   un
  6610  4015  4023   un
  6611  4016  4022   un
  6612  4017  4028   un
  6613  4017  4206   un
  6614  4018  4025   un
  6615  4018  1097   un
  6616  4019  4027   un
  6617  4020  4026   un
  6618  4021  4045   un
  6619  4022  4046   un
  6620  4023  4047   un
  6621  4024  4048   un
  6622  4025  4049   un
  6623  4026  4050   un
  6624  4027  4051   un
  6625  4028  4052   un
  6626  4029  4053   un
  6627  4030  4054   un
  6628  4031  4055   un
  6629  4032  4056   un
  6630  4033  4057   un
  6631  4034  4058   un
  6632  4035  4059   un
  6633  4036  4060   un
  6634  4037  4061   un
  6635  4038  4062   un
  6636  4039  4063   un
  6637  4040  4064   un
  6638  4041  4065   un
  6639  4042  4066   un
  6640  4043  4067   un
  6641  4044  4068   un
  6642  4045  4046   un
  6643  4045  4069    1
  6644  4046  4070    1
  6645  4047  4048   un
  6646  4047  4071    1
  6647  4048  4072    1
  6648  4049  4050   un
  6649  4049  4073    1
  6650  4050  4074    1
  6651  4051  4052   un
  6652  4051  4075    1
  6653  4052  4076    1
  6654  4053  4054   un
  6655  4053  4077    1
  6656  4054  4078    1
  6657  4055  4056   un
  6658  4055  4079    1
  6659  4056  4080    1
  6660  4057  4058   un
  6661  4057  4081    1
  6662  4058  4082    1
  6663  4059  4060   un
  6664  4059  4083    1
  6665  4060  4084    1
  6666  4061  4062   un
  6667  4061  4085    1
  6668  4062  4086    1
  6669  4063  4064   un
  6670  4063  4087    1
  6671  4064  4088    1
  6672  4065  4066   un
  6673  4065  4089    1
  6674  4066  4090    1
  6675  4067  4068   un
  6676  4067  4091    1
  6677  4068  4092    1
  6678  4093  4117   un
  6679  4094  4118   un
  6680  4095  4119   un
  6681  4096  4120   un
  6682  4097  4121   un
  6683  4098  4122   un
  6684  4099  4123   un
  6685  4100  4124   un
  6686  4101  4125   un
  6687  4102  4126   un
  6688  4103  4127   un
  6689  4104  4128   un
  6690  4105  4129   un
  6691  4106  4130   un
  6692  4107  4131   un
  6693  4108  4132   un
  6694  4109  4133   un
  6695  4110  4134   un
  6696  4111  4135   un
  6697  4112  4136   un
  6698  4113  4137   un
  6699  4114  4138   un
  6700  4115  4139   un
  6701  4116  4140   un
  6702  4117  4118   un
  6703  4117  4141    1
  6704  4118  4142    1
  6705  4119  4120   un
  6706  4119  4143    1
  6707  4120  4144    1
  6708  4121  4122   un
  6709  4121  4145    1
  6710  4122  4146    1
  6711  4123  4124   un
  6712  4123  4147    1
  6713  4124  4148    1
  6714  4125  4126   un
  6715  4125  4149    1
  6716  4126  4150    1
  6717  4127  4128   un
  6718  4127  4151    1
  6719  4128  4152    1
  6720  4129  4130   un
  6721  4129  4153    1
  6722  4130  4154    1
  6723  4131  4132   un
  6724  4131  4155    1
  6725  4132  4156    1
  6726  4133  4134   un
  6727  4133  4157    1
  6728  4134  4158    1
  6729  4135  4136   un
  6730  4135  4159    1
  6731  4136  4160    1
  6732  4137  4138   un
  6733  4137  4161    1
  6734  4138  4162    1
  6735  4139  4140   un
  6736  4139  4163    1
  6737  4140  4164    1
  6738  4165  4187    1
  6739  4165  1092    1
  6740  4166  4190    1
  6741  4166  4205    1
  6742  4168  4193    1
  6743  4168  4207    1
  6744  4169  4194    1
  6745  4169  4209    1
  6746  4171  4206    1
  6747  4172  4197    1
  6748  4172  3869    1
  6749  4173  4198    1
  6750  4173  4201    1
  6751  4176  4193    1
  6752  4178  4197    1
  6753  4179  4189    1
  6754  4179  4206    1
  6755  4180  1071    1
  6756  4180  1097    1
  6757  4183  4203    1
  6758  4183  4209    1
  6759  4184  4200    1
  6760  4184  4205    1
  6761  4186  4201    1
  6762  4186  4208    1
  6763  4187  1083   un
  6764  4187  1092   un
  6765  4187  4249    1
  6766  4188  3863   un
  6767  4188  3878   un
  6768  4188  4234    1
  6769  4188  4244    1
  6770  4188  4250    1
  6771  3858  4245    1
  6772  4189  4196   un
  6773  4189  4204   un
  6774  4189  4206   un
  6775  4189  4251    1
  6776  4190  4195   un
  6777  4190  4205   un
  6778  4190  4246    1
  6779  4191  4193   un
  6780  4191  4202   un
  6781  4191  4207   un
  6782  4191  4242    1
  6783  4191  4253    1
  6784  4192  4198   un
  6785  4192  4208   un
  6786  4192  4235    1
  6787  4192  4243    1
  6788  2128  4247    1
  6789  4193  4207   un
  6790  4193  4253    1
  6791   703  4248    1
  6792  3863  4250    1
  6793  4194  4199   un
  6794  4194  4209   un
  6795  4194  4240    1
  6796  3864  4197   un
  6797  3864  4252    1
  6798  4195  4200   un
  6799  4195  4236    1
  6800  4195  4246    1
  6801  4196  4204   un
  6802  4196  4237    1
  6803  4196  4241    1
  6804  4196  4251    1
  6805  4197  3869   un
  6806  4197  4252    1
  6807  4198  4201   un
  6808  4198  4243    1
  6809  1083  4249    1
  6810  4199  4203   un
  6811  4199  4239    1
  6812  4199  4240    1
  6813  4200  4205   un
  6814  4200  4236    1
  6815  4201  4208   un
  6816  4202  4207   un
  6817  4202  4238    1
  6818  4202  4242    1
  6819  4202  4255    1
  6820  4203  4209   un
  6821  4203  4239    1
  6822  3873  4245    1
  6823  4204  4206   un
  6824  4204  4237    1
  6825  4204  4254    1
  6826  4206  4254    1
  6827  4207  4255    1
  6828  4208  4235    1
  6829   727  4248    1
  6830  3878  4234    1
  6831  1439  4269   un
  6832  1439  4289   un
  6833  1439  4313   un
  6834  1439  4555   un
  6835  1439  4575    1
  6836  4256  4266   un
  6837  4256  4290   un
  6838  4256  4511    1
  6839  4256  4524   un
  6840  4256  4526   un
  6841  4256  4535   un
  6842  4256  4539   un
  6843  4256  4547   un
  6844  4256  4556   un
  6845  4256  4564    1
  6846  4256  4572    1
  6847  4256  4577    1
  6848  4257  4258   un
  6849  4257  4259   un
  6850  4257  4265   un
  6851  4257  4268   un
  6852  4257  4270   un
  6853  4257  4291   un
  6854  4257  4314   un
  6855  4257  4335   un
  6856  4257  4498    1
  6857  4257  4510    1
  6858  4257  4512    1
  6859  4257  4513    1
  6860  1441  4292   un
  6861  1441  4336   un
  6862  1441  4540   un
  6863  1441  4548   un
  6864  1441  4574    1
  6865  1443  4271   un
  6866  1443  4293   un
  6867  1443  4315   un
  6868  1446  4294   un
  6869  1446  4541   un
  6870  1446  4549   un
  6871  4258  4259   un
  6872  4258  4262   un
  6873  4258  4268   un
  6874  4258  4273   un
  6875  4258  4295   un
  6876  4258  4317   un
  6877  4258  4339   un
  6878  4258  4501    1
  6879  4258  4508    1
  6880  4258  4512    1
  6881  4258  4513    1
  6882  3518  4296   un
  6883  3518  4340   un
  6884  3518  4542   un
  6885  3518  4550   un
  6886  3518  4569    1
  6887  3520  4275   un
  6888  3520  4297   un
  6889  3520  4319   un
  6890  3520  4507    1
  6891  3521  4298   un
  6892  3521  4509    1
  6893  3521  4521   un
  6894  3521  4543   un
  6895  3521  4551   un
  6896  3521  4578    1
  6897  4259  4262   un
  6898  4259  4265   un
  6899  4259  4276   un
  6900  4259  4299   un
  6901  4259  4320   un
  6902  4259  4343   un
  6903  4259  4504    1
  6904  4259  4508    1
  6905  4259  4510    1
  6906  4259  4513    1
  6907  4260  4264   un
  6908  4260  4300   un
  6909  4260  4344   un
  6910  4260  4505    1
  6911  4260  4506    1
  6912  4260  4518   un
  6913  4260  4522   un
  6914  4260  4529   un
  6915  4260  4544   un
  6916  4260  4552   un
  6917  4260  4571    1
  6918  4260  4576    1
  6919  4261  4277   un
  6920  4261  4301   un
  6921  4261  4321   un
  6922  4261  4500    1
  6923  4261  4514    1
  6924  4261  4523   un
  6925  4261  4528   un
  6926  4261  4533   un
  6927  4261  4538   un
  6928  4261  4557   un
  6929  4261  4567    1
  6930  4261  4568    1
  6931  3526  4302   un
  6932  3526  4558   un
  6933  3526  4569    1
  6934  4262  4265   un
  6935  4262  4268   un
  6936  4262  4279   un
  6937  4262  4303   un
  6938  4262  4323   un
  6939  4262  4347   un
  6940  4262  4501    1
  6941  4262  4504    1
  6942  4262  4508    1
  6943  4262  4516    1
  6944  3527  4304   un
  6945  3527  4348   un
  6946  3527  4499    1
  6947  3527  4509    1
  6948  3527  4521   un
  6949  4263  4281   un
  6950  4263  4305   un
  6951  4263  4325   un
  6952  4263  4503    1
  6953  4263  4517    1
  6954  4263  4520   un
  6955  4263  4527   un
  6956  4263  4532   un
  6957  4263  4536   un
  6958  4263  4559   un
  6959  4263  4565    1
  6960  4263  4570    1
  6961  4264  4306   un
  6962  4264  4505    1
  6963  4264  4518   un
  6964  4264  4529   un
  6965  4264  4537   un
  6966  4264  4545   un
  6967  4264  4553   un
  6968  4264  4560   un
  6969  4264  4563    1
  6970  4264  4571    1
  6971  4264  4579    1
  6972  4265  4268   un
  6973  4265  4283   un
  6974  4265  4307   un
  6975  4265  4327   un
  6976  4265  4349   un
  6977  4265  4498    1
  6978  4265  4504    1
  6979  4265  4510    1
  6980  4265  4516    1
  6981  4266  4308   un
  6982  4266  4350   un
  6983  4266  4502    1
  6984  4266  4511    1
  6985  4266  4526   un
  6986  4266  4530   un
  6987  4266  4535   un
  6988  4266  4546   un
  6989  4266  4554   un
  6990  4266  4564    1
  6991  4266  4580    1
  6992  4267  4285   un
  6993  4267  4309   un
  6994  4267  4329   un
  6995  4267  4497    1
  6996  4267  4515    1
  6997  4267  4519   un
  6998  4267  4525   un
  6999  4267  4531   un
  7000  4267  4534   un
  7001  4267  4561   un
  7002  4267  4566    1
  7003  4267  4573    1
  7004  1467  4310   un
  7005  1467  4562   un
  7006  1467  4574    1
  7007  4268  4287   un
  7008  4268  4311   un
  7009  4268  4331   un
  7010  4268  4351   un
  7011  4268  4498    1
  7012  4268  4501    1
  7013  4268  4512    1
  7014  4268  4516    1
  7015  1470  4312   un
  7016  1470  4352   un
  7017  4269  4425   un
  7018  3539  4426   un
  7019  4270  4427   un
  7020  3540  4428   un
  7021  4271  4429   un
  7022  4272  4430   un
  7023  4272  1445   un
  7024  4273  4431   un
  7025  4274  4432   un
  7026  4274  3517   un
  7027  4275  4433   un
  7028  1475  4434   un
  7029  4276  4435   un
  7030  1476  4436   un
  7031  4277  4437   un
  7032  4278  4438   un
  7033  4278  4531   un
  7034  4279  4439   un
  7035  4280  4440   un
  7036  4280  4532   un
  7037  4281  4441   un
  7038  4282  4442   un
  7039  4282  4533   un
  7040  4283  4443   un
  7041  4284  4444   un
  7042  4284  4534   un
  7043  4285  4445   un
  7044  4286  4446   un
  7045  4286  4536   un
  7046  4287  4447   un
  7047  4288  4448   un
  7048  4288  4538   un
  7049  4289  4353   un
  7050  4290  4354   un
  7051  4291  4355   un
  7052  4292  4356   un
  7053  4293  4357   un
  7054  4294  4358   un
  7055  4295  4359   un
  7056  4296  4360   un
  7057  4297  4361   un
  7058  4298  4362   un
  7059  4299  4363   un
  7060  4300  4364   un
  7061  4301  4365   un
  7062  4302  4366   un
  7063  4303  4367   un
  7064  4304  4368   un
  7065  4305  4369   un
  7066  4306  4370   un
  7067  4307  4371   un
  7068  4308  4372   un
  7069  4309  4373   un
  7070  4310  4374   un
  7071  4311  4375   un
  7072  4312  4376   un
  7073  4313  4436   un
  7074  3549  4433   un
  7075  4314  4435   un
  7076  3550  4434   un
  7077  4315  4428   un
  7078  4316  4425   un
  7079  4316  1445   un
  7080  4317  4427   un
  7081  4318  4426   un
  7082  4318  3517   un
  7083  4319  4432   un
  7084  1485  4429   un
  7085  4320  4431   un
  7086  1486  4430   un
  7087  4321  4448   un
  7088  4322  4445   un
  7089  4322  4531   un
  7090  4323  4447   un
  7091  4324  4446   un
  7092  4324  4532   un
  7093  4325  4440   un
  7094  4326  4437   un
  7095  4326  4533   un
  7096  4327  4439   un
  7097  4328  4438   un
  7098  4328  4534   un
  7099  4329  4444   un
  7100  4330  4441   un
  7101  4330  4536   un
  7102  4331  4443   un
  7103  4332  4442   un
  7104  4332  4538   un
  7105  4333  4376   un
  7106  4333  1792   un
  7107  4334  4373   un
  7108  4334  4519   un
  7109  4335  4375   un
  7110  4336  4374   un
  7111  4337  4368   un
  7112  4337  4521   un
  7113  4338  4365   un
  7114  4338  4523   un
  7115  4339  4367   un
  7116  4340  4366   un
  7117  4341  4372   un
  7118  4341  4526   un
  7119  4342  4369   un
  7120  4342  4527   un
  7121  4343  4371   un
  7122  4344  4370   un
  7123  4345  4364   un
  7124  4345  4529   un
  7125  4346  4361   un
  7126  4346  3525   un
  7127  4347  4363   un
  7128  4348  4362   un
  7129  1497  4356   un
  7130  1498  4353   un
  7131  4349  4355   un
  7132  4350  4354   un
  7133  3567  4360   un
  7134  3568  4357   un
  7135  4351  4359   un
  7136  4352  4358   un
  7137  4353  4377   un
  7138  4354  4378   un
  7139  4355  4379   un
  7140  4356  4380   un
  7141  4357  4381   un
  7142  4358  4382   un
  7143  4359  4383   un
  7144  4360  4384   un
  7145  4361  4385   un
  7146  4362  4386   un
  7147  4363  4387   un
  7148  4364  4388   un
  7149  4365  4389   un
  7150  4366  4390   un
  7151  4367  4391   un
  7152  4368  4392   un
  7153  4369  4393   un
  7154  4370  4394   un
  7155  4371  4395   un
  7156  4372  4396   un
  7157  4373  4397   un
  7158  4374  4398   un
  7159  4375  4399   un
  7160  4376  4400   un
  7161  4377  4378   un
  7162  4377  4401    1
  7163  4378  4402    1
  7164  4379  4380   un
  7165  4379  4403    1
  7166  4380  4404    1
  7167  4381  4382   un
  7168  4381  4405    1
  7169  4382  4406    1
  7170  4383  4384   un
  7171  4383  4407    1
  7172  4384  4408    1
  7173  4385  4386   un
  7174  4385  4409    1
  7175  4386  4410    1
  7176  4387  4388   un
  7177  4387  4411    1
  7178  4388  4412    1
  7179  4389  4390   un
  7180  4389  4413    1
  7181  4390  4414    1
  7182  4391  4392   un
  7183  4391  4415    1
  7184  4392  4416    1
  7185  4393  4394   un
  7186  4393  4417    1
  7187  4394  4418    1
  7188  4395  4396   un
  7189  4395  4419    1
  7190  4396  4420    1
  7191  4397  4398   un
  7192  4397  4421    1
  7193  4398  4422    1
  7194  4399  4400   un
  7195  4399  4423    1
  7196  4400  4424    1
  7197  4425  4449   un
  7198  4426  4450   un
  7199  4427  4451   un
  7200  4428  4452   un
  7201  4429  4453   un
  7202  4430  4454   un
  7203  4431  4455   un
  7204  4432  4456   un
  7205  4433  4457   un
  7206  4434  4458   un
  7207  4435  4459   un
  7208  4436  4460   un
  7209  4437  4461   un
  7210  4438  4462   un
  7211  4439  4463   un
  7212  4440  4464   un
  7213  4441  4465   un
  7214  4442  4466   un
  7215  4443  4467   un
  7216  4444  4468   un
  7217  4445  4469   un
  7218  4446  4470   un
  7219  4447  4471   un
  7220  4448  4472   un
  7221  4449  4450   un
  7222  4449  4473    1
  7223  4450  4474    1
  7224  4451  4452   un
  7225  4451  4475    1
  7226  4452  4476    1
  7227  4453  4454   un
  7228  4453  4477    1
  7229  4454  4478    1
  7230  4455  4456   un
  7231  4455  4479    1
  7232  4456  4480    1
  7233  4457  4458   un
  7234  4457  4481    1
  7235  4458  4482    1
  7236  4459  4460   un
  7237  4459  4483    1
  7238  4460  4484    1
  7239  4461  4462   un
  7240  4461  4485    1
  7241  4462  4486    1
  7242  4463  4464   un
  7243  4463  4487    1
  7244  4464  4488    1
  7245  4465  4466   un
  7246  4465  4489    1
  7247  4466  4490    1
  7248  4467  4468   un
  7249  4467  4491    1
  7250  4468  4492    1
  7251  4469  4470   un
  7252  4469  4493    1
  7253  4470  4494    1
  7254  4471  4472   un
  7255  4471  4495    1
  7256  4472  4496    1
  7257  4497  4519    1
  7258  4497  4534    1
  7259  4499  4521    1
  7260  4499  3536    1
  7261  4500  4523    1
  7262  4500  4538    1
  7263  4502  4526    1
  7264  4502  4530    1
  7265  4503  4527    1
  7266  4503  4532    1
  7267  4505  4529    1
  7268  4506  4522    1
  7269  4506  4529    1
  7270  4507  3517    1
  7271  4507  3525    1
  7272  4509  4521    1
  7273  4511  4526    1
  7274  4514  4533    1
  7275  4514  4538    1
  7276  4515  4531    1
  7277  4515  4534    1
  7278  4517  4532    1
  7279  4517  4536    1
  7280  4518  4522   un
  7281  4518  4537   un
  7282  4518  4563    1
  7283  4518  4571    1
  7284  4518  4576    1
  7285  4519  4525   un
  7286  4519  4534   un
  7287  4519  4573    1
  7288  3512  4521   un
  7289  3512  4578    1
  7290  4520  4527   un
  7291  4520  4536   un
  7292  4520  4565    1
  7293  4520  4570    1
  7294  2478  4574    1
  7295  4521  3536   un
  7296  4521  4578    1
  7297  1445  4575    1
  7298  4522  4529   un
  7299  4522  4537   un
  7300  4522  4576    1
  7301  4523  4528   un
  7302  4523  4538   un
  7303  4523  4568    1
  7304  4524  4526   un
  7305  4524  4530   un
  7306  4524  4535   un
  7307  4524  4572    1
  7308  4524  4577    1
  7309  4525  4531   un
  7310  4525  4566    1
  7311  4525  4573    1
  7312  3866  4569    1
  7313  4526  4530   un
  7314  4526  4577    1
  7315  4527  4532   un
  7316  4527  4570    1
  7317  4528  4533   un
  7318  4528  4567    1
  7319  4528  4568    1
  7320  4529  4537   un
  7321  4529  4579    1
  7322  4530  4535   un
  7323  4530  4580    1
  7324  4531  4534   un
  7325  4531  4566    1
  7326  4532  4536   un
  7327  4533  4538   un
  7328  4533  4567    1
  7329  4535  4564    1
  7330  4535  4572    1
  7331  4535  4580    1
  7332  4536  4565    1
  7333  1469  4575    1
  7334  4537  4563    1
  7335  4537  4579    1
  7336  1792  4590   un
  7337  1792  4608   un
  7338  1792  4632   un
  7339  1792  4873    1
  7340  4519  4609   un
  7341  4519  4823    1
  7342  4519  4836   un
  7343  4519  4845   un
  7344  4519  4851   un
  7345  4519  4875    1
  7346  4581  4582   un
  7347  4581  4583   un
  7348  4581  4587   un
  7349  4581  4589   un
  7350  4581  4591   un
  7351  4581  4610   un
  7352  4581  4633   un
  7353  4581  4652   un
  7354  4581  4813    1
  7355  4581  4822    1
  7356  4581  4824    1
  7357  4581  4825    1
  7358  1794  4611   un
  7359  1794  4653   un
  7360  1794  4846   un
  7361  1794  4852   un
  7362  1794  4872    1
  7363  1796  4592   un
  7364  1796  4612   un
  7365  1796  4634   un
  7366  1797  4613   un
  7367  1797  4847   un
  7368  1797  4853   un
  7369  4582  4583   un
  7370  4582  4585   un
  7371  4582  4589   un
  7372  4582  4593   un
  7373  4582  4614   un
  7374  4582  4635   un
  7375  4582  4656   un
  7376  4582  4816    1
  7377  4582  4820    1
  7378  4582  4824    1
  7379  4582  4825    1
  7380  3864  4615   un
  7381  3864  4657   un
  7382  3864  4848   un
  7383  3864  4854   un
  7384  3864  4868    1
  7385  3866  4594   un
  7386  3866  4616   un
  7387  3866  4636   un
  7388  3867  4617   un
  7389  3867  4821    1
  7390  3867  4833   un
  7391  3867  4849   un
  7392  3867  4855   un
  7393  3867  4876    1
  7394  4583  4585   un
  7395  4583  4587   un
  7396  4583  4595   un
  7397  4583  4618   un
  7398  4583  4637   un
  7399  4583  4660   un
  7400  4583  4819    1
  7401  4583  4820    1
  7402  4583  4822    1
  7403  4583  4825    1
  7404  4528  4619   un
  7405  4528  4661   un
  7406  4528  4830   un
  7407  4528  4850   un
  7408  4528  4856   un
  7409  4528  4870    1
  7410  4528  4874    1
  7411  4584  4596   un
  7412  4584  4620   un
  7413  4584  4638   un
  7414  4584  4815    1
  7415  4584  4826    1
  7416  4584  4834   un
  7417  4584  4838   un
  7418  4584  4841   un
  7419  4584  4844   un
  7420  4584  4857   un
  7421  4584  4866    1
  7422  4584  4867    1
  7423  3869  4621   un
  7424  3869  4858   un
  7425  3869  4868    1
  7426  4585  4587   un
  7427  4585  4589   un
  7428  4585  4598   un
  7429  4585  4622   un
  7430  4585  4640   un
  7431  4585  4662   un
  7432  4585  4816    1
  7433  4585  4819    1
  7434  4585  4820    1
  7435  4585  4828    1
  7436  3870  4623   un
  7437  3870  4663   un
  7438  3870  4814    1
  7439  3870  4821    1
  7440  3870  4833   un
  7441  4586  4600   un
  7442  4586  4624   un
  7443  4586  4642   un
  7444  4586  4818    1
  7445  4586  4829    1
  7446  4586  4832   un
  7447  4586  4837   un
  7448  4586  4840   un
  7449  4586  4843   un
  7450  4586  4859   un
  7451  4586  4864    1
  7452  4586  4869    1
  7453  4533  4625   un
  7454  4533  4830   un
  7455  4533  4860   un
  7456  4533  4863    1
  7457  4533  4870    1
  7458  4587  4589   un
  7459  4587  4602   un
  7460  4587  4626   un
  7461  4587  4644   un
  7462  4587  4664   un
  7463  4587  4813    1
  7464  4587  4819    1
  7465  4587  4822    1
  7466  4587  4828    1
  7467  4534  4627   un
  7468  4534  4665   un
  7469  4534  4817    1
  7470  4534  4823    1
  7471  4534  4836   un
  7472  4588  4604   un
  7473  4588  4628   un
  7474  4588  4646   un
  7475  4588  4812    1
  7476  4588  4827    1
  7477  4588  4831   un
  7478  4588  4835   un
  7479  4588  4839   un
  7480  4588  4842   un
  7481  4588  4861   un
  7482  4588  4865    1
  7483  4588  4871    1
  7484  1812  4629   un
  7485  1812  4862   un
  7486  1812  4872    1
  7487  4589  4606   un
  7488  4589  4630   un
  7489  4589  4648   un
  7490  4589  4666   un
  7491  4589  4813    1
  7492  4589  4816    1
  7493  4589  4824    1
  7494  4589  4828    1
  7495  1813  4631   un
  7496  1813  4667   un
  7497  4590  4740   un
  7498  3879  4741   un
  7499  4591  4742   un
  7500  3880  4743   un
  7501  4592  4744   un
  7502  4541  4745   un
  7503  4593  4746   un
  7504  4542  4747   un
  7505  4594  4748   un
  7506  1818  4749   un
  7507  4595  4750   un
  7508  1819  4751   un
  7509  4596  4752   un
  7510  4597  4753   un
  7511  4597  4839   un
  7512  4598  4754   un
  7513  4599  4755   un
  7514  4599  4840   un
  7515  4600  4756   un
  7516  4601  4757   un
  7517  4601  4841   un
  7518  4602  4758   un
  7519  4603  4759   un
  7520  4603  4842   un
  7521  4604  4760   un
  7522  4605  4761   un
  7523  4605  4843   un
  7524  4606  4762   un
  7525  4607  4763   un
  7526  4607  4844   un
  7527  4608  4668   un
  7528  4609  4669   un
  7529  4610  4670   un
  7530  4611  4671   un
  7531  4612  4672   un
  7532  4613  4673   un
  7533  4614  4674   un
  7534  4615  4675   un
  7535  4616  4676   un
  7536  4617  4677   un
  7537  4618  4678   un
  7538  4619  4679   un
  7539  4620  4680   un
  7540  4621  4681   un
  7541  4622  4682   un
  7542  4623  4683   un
  7543  4624  4684   un
  7544  4625  4685   un
  7545  4626  4686   un
  7546  4627  4687   un
  7547  4628  4688   un
  7548  4629  4689   un
  7549  4630  4690   un
  7550  4631  4691   un
  7551  4632  4751   un
  7552  3887  4748   un
  7553  4633  4750   un
  7554  3888  4749   un
  7555  4634  4743   un
  7556  4549  4740   un
  7557  4635  4742   un
  7558  4550  4741   un
  7559  4636  4747   un
  7560  1826  4744   un
  7561  4637  4746   un
  7562  1827  4745   un
  7563  4638  4763   un
  7564  4639  4760   un
  7565  4639  4839   un
  7566  4640  4762   un
  7567  4641  4761   un
  7568  4641  4840   un
  7569  4642  4755   un
  7570  4643  4752   un
  7571  4643  4841   un
  7572  4644  4754   un
  7573  4645  4753   un
  7574  4645  4842   un
  7575  4646  4759   un
  7576  4647  4756   un
  7577  4647  4843   un
  7578  4648  4758   un
  7579  4649  4757   un
  7580  4649  4844   un
  7581  4650  4691   un
  7582  4650  2124   un
  7583  4651  4688   un
  7584  4651  4831   un
  7585  4652  4690   un
  7586  4653  4689   un
  7587  4654  4683   un
  7588  4654  4833   un
  7589  4655  4680   un
  7590  4655  4834   un
  7591  4656  4682   un
  7592  4657  4681   un
  7593  4658  4687   un
  7594  4658  4836   un
  7595  4659  4684   un
  7596  4659  4837   un
  7597  4660  4686   un
  7598  4661  4685   un
  7599  4557  4679   un
  7600  4558  4676   un
  7601  4662  4678   un
  7602  4663  4677   un
  7603  1834  4671   un
  7604  1835  4668   un
  7605  4664  4670   un
  7606  4665  4669   un
  7607  3901  4675   un
  7608  3902  4672   un
  7609  4666  4674   un
  7610  4667  4673   un
  7611  4668  4692   un
  7612  4669  4693   un
  7613  4670  4694   un
  7614  4671  4695   un
  7615  4672  4696   un
  7616  4673  4697   un
  7617  4674  4698   un
  7618  4675  4699   un
  7619  4676  4700   un
  7620  4677  4701   un
  7621  4678  4702   un
  7622  4679  4703   un
  7623  4680  4704   un
  7624  4681  4705   un
  7625  4682  4706   un
  7626  4683  4707   un
  7627  4684  4708   un
  7628  4685  4709   un
  7629  4686  4710   un
  7630  4687  4711   un
  7631  4688  4712   un
  7632  4689  4713   un
  7633  4690  4714   un
  7634  4691  4715   un
  7635  4692  4693   un
  7636  4692  4716    1
  7637  4693  4717    1
  7638  4694  4695   un
  7639  4694  4718    1
  7640  4695  4719    1
  7641  4696  4697   un
  7642  4696  4720    1
  7643  4697  4721    1
  7644  4698  4699   un
  7645  4698  4722    1
  7646  4699  4723    1
  7647  4700  4701   un
  7648  4700  4724    1
  7649  4701  4725    1
  7650  4702  4703   un
  7651  4702  4726    1
  7652  4703  4727    1
  7653  4704  4705   un
  7654  4704  4728    1
  7655  4705  4729    1
  7656  4706  4707   un
  7657  4706  4730    1
  7658  4707  4731    1
  7659  4708  4709   un
  7660  4708  4732    1
  7661  4709  4733    1
  7662  4710  4711   un
  7663  4710  4734    1
  7664  4711  4735    1
  7665  4712  4713   un
  7666  4712  4736    1
  7667  4713  4737    1
  7668  4714  4715   un
  7669  4714  4738    1
  7670  4715  4739    1
  7671  4740  4764   un
  7672  4741  4765   un
  7673  4742  4766   un
  7674  4743  4767   un
  7675  4744  4768   un
  7676  4745  4769   un
  7677  4746  4770   un
  7678  4747  4771   un
  7679  4748  4772   un
  7680  4749  4773   un
  7681  4750  4774   un
  7682  4751  4775   un
  7683  4752  4776   un
  7684  4753  4777   un
  7685  4754  4778   un
  7686  4755  4779   un
  7687  4756  4780   un
  7688  4757  4781   un
  7689  4758  4782   un
  7690  4759  4783   un
  7691  4760  4784   un
  7692  4761  4785   un
  7693  4762  4786   un
  7694  4763  4787   un
  7695  4764  4765   un
  7696  4764  4788    1
  7697  4765  4789    1
  7698  4766  4767   un
  7699  4766  4790    1
  7700  4767  4791    1
  7701  4768  4769   un
  7702  4768  4792    1
  7703  4769  4793    1
  7704  4770  4771   un
  7705  4770  4794    1
  7706  4771  4795    1
  7707  4772  4773   un
  7708  4772  4796    1
  7709  4773  4797    1
  7710  4774  4775   un
  7711  4774  4798    1
  7712  4775  4799    1
  7713  4776  4777   un
  7714  4776  4800    1
  7715  4777  4801    1
  7716  4778  4779   un
  7717  4778  4802    1
  7718  4779  4803    1
  7719  4780  4781   un
  7720  4780  4804    1
  7721  4781  4805    1
  7722  4782  4783   un
  7723  4782  4806    1
  7724  4783  4807    1
  7725  4784  4785   un
  7726  4784  4808    1
  7727  4785  4809    1
  7728  4786  4787   un
  7729  4786  4810    1
  7730  4787  4811    1
  7731  4812  4831    1
  7732  4812  4842    1
  7733  4814  4833    1
  7734  4814  3877    1
  7735  4815  4834    1
  7736  4815  4844    1
  7737  4817  4836    1
  7738  4817  4531    1
  7739  4818  4837    1
  7740  4818  4840    1
  7741  4821  4833    1
  7742  4823  4836    1
  7743  4826  4841    1
  7744  4826  4844    1
  7745  4827  4839    1
  7746  4827  4842    1
  7747  4829  4840    1
  7748  4829  4843    1
  7749  4830  4523   un
  7750  4830  4538   un
  7751  4830  4863    1
  7752  4830  4870    1
  7753  4830  4874    1
  7754  4831  4835   un
  7755  4831  4842   un
  7756  4831  4871    1
  7757  3861  4833   un
  7758  3861  4876    1
  7759  4832  4837   un
  7760  4832  4843   un
  7761  4832  4864    1
  7762  4832  4869    1
  7763  2831  4872    1
  7764  4833  3877   un
  7765  4833  4876    1
  7766  1446  4873    1
  7767  4523  4874    1
  7768  4834  4838   un
  7769  4834  4844   un
  7770  4834  4867    1
  7771  4525  4836   un
  7772  4525  4875    1
  7773  4835  4839   un
  7774  4835  4865    1
  7775  4835  4871    1
  7776  4197  4868    1
  7777  4836  4531   un
  7778  4836  4875    1
  7779  4837  4840   un
  7780  4837  4869    1
  7781  4838  4841   un
  7782  4838  4866    1
  7783  4838  4867    1
  7784  4839  4842   un
  7785  4839  4865    1
  7786  4840  4843   un
  7787  4841  4844   un
  7788  4841  4866    1
  7789  4843  4864    1
  7790  1470  4873    1
  7791  4538  4863    1
  7792  2124  4886   un
  7793  2124  4904   un
  7794  2124  4928   un
  7795  2124  5173    1
  7796  4831  4905   un
  7797  4831  5120    1
  7798  4831  5135   un
  7799  4831  5144   un
  7800  4831  5150   un
  7801  4831  5177    1
  7802  4877  4878   un
  7803  4877  4879   un
  7804  4877  4883   un
  7805  4877  4885   un
  7806  4877  4887   un
  7807  4877  4906   un
  7808  4877  4929   un
  7809  4877  4948   un
  7810  4877  5110    1
  7811  4877  5119    1
  7812  4877  5121    1
  7813  4877  5122    1
  7814  2126  4907   un
  7815  2126  4949   un
  7816  2126  5145   un
  7817  2126  5151   un
  7818  2126  5172    1
  7819  2128  4888   un
  7820  2128  4908   un
  7821  2128  4930   un
  7822  2129  4909   un
  7823  2129  5127   un
  7824  2129  5146   un
  7825  2129  5152   un
  7826  2129  5174    1
  7827  4878  4879   un
  7828  4878  4881   un
  7829  4878  4885   un
  7830  4878  4889   un
  7831  4878  4910   un
  7832  4878  4931   un
  7833  4878  4952   un
  7834  4878  5113    1
  7835  4878  5117    1
  7836  4878  5121    1
  7837  4878  5122    1
  7838  4195  4911   un
  7839  4195  4953   un
  7840  4195  5134   un
  7841  4195  5147   un
  7842  4195  5153   un
  7843  4195  5168    1
  7844  4195  5176    1
  7845  4197  4890   un
  7846  4197  4912   un
  7847  4197  4932   un
  7848  4198  4913   un
  7849  4198  5118    1
  7850  4198  5131   un
  7851  4198  5148   un
  7852  4198  5154   un
  7853  4198  5178    1
  7854  4879  4881   un
  7855  4879  4883   un
  7856  4879  4891   un
  7857  4879  4914   un
  7858  4879  4933   un
  7859  4879  4956   un
  7860  4879  5116    1
  7861  4879  5117    1
  7862  4879  5119    1
  7863  4879  5122    1
  7864  4838  4915   un
  7865  4838  4957   un
  7866  4838  5128   un
  7867  4838  5149   un
  7868  4838  5155   un
  7869  4838  5170    1
  7870  4838  5175    1
  7871  4880  4892   un
  7872  4880  4916   un
  7873  4880  4934   un
  7874  4880  5112    1
  7875  4880  5123    1
  7876  4880  5132   un
  7877  4880  5137   un
  7878  4880  5140   un
  7879  4880  5143   un
  7880  4880  5156   un
  7881  4880  5166    1
  7882  4880  5167    1
  7883  4200  4917   un
  7884  4200  5134   un
  7885  4200  5157   un
  7886  4200  5165    1
  7887  4200  5168    1
  7888  4881  4883   un
  7889  4881  4885   un
  7890  4881  4894   un
  7891  4881  4918   un
  7892  4881  4936   un
  7893  4881  4958   un
  7894  4881  5113    1
  7895  4881  5116    1
  7896  4881  5117    1
  7897  4881  5125    1
  7898  4201  4919   un
  7899  4201  4959   un
  7900  4201  5111    1
  7901  4201  5118    1
  7902  4201  5131   un
  7903  4882  4896   un
  7904  4882  4920   un
  7905  4882  4938   un
  7906  4882  5115    1
  7907  4882  5126    1
  7908  4882  5130   un
  7909  4882  5136   un
  7910  4882  5139   un
  7911  4882  5142   un
  7912  4882  5158   un
  7913  4882  5163    1
  7914  4882  5169    1
  7915  4841  4921   un
  7916  4841  5128   un
  7917  4841  5159   un
  7918  4841  5162    1
  7919  4841  5170    1
  7920  4883  4885   un
  7921  4883  4898   un
  7922  4883  4922   un
  7923  4883  4940   un
  7924  4883  4960   un
  7925  4883  5110    1
  7926  4883  5116    1
  7927  4883  5119    1
  7928  4883  5125    1
  7929  4842  4923   un
  7930  4842  4961   un
  7931  4842  5114    1
  7932  4842  5120    1
  7933  4842  5135   un
  7934  4884  4900   un
  7935  4884  4924   un
  7936  4884  4942   un
  7937  4884  5109    1
  7938  4884  5124    1
  7939  4884  5129   un
  7940  4884  5133   un
  7941  4884  5138   un
  7942  4884  5141   un
  7943  4884  5160   un
  7944  4884  5164    1
  7945  4884  5171    1
  7946  2145  4925   un
  7947  2145  5161   un
  7948  2145  5172    1
  7949  4885  4902   un
  7950  4885  4926   un
  7951  4885  4944   un
  7952  4885  4962   un
  7953  4885  5110    1
  7954  4885  5113    1
  7955  4885  5121    1
  7956  4885  5125    1
  7957  2146  4927   un
  7958  2146  4963   un
  7959  2146  5108    1
  7960  2146  5127   un
  7961  4886  5036   un
  7962  4210  5037   un
  7963  4887  5038   un
  7964  4211  5039   un
  7965  4888  5040   un
  7966  4847  5041   un
  7967  4889  5042   un
  7968  4848  5043   un
  7969  4890  5044   un
  7970  2151  5045   un
  7971  4891  5046   un
  7972  2152  5047   un
  7973  4892  5048   un
  7974  4893  5049   un
  7975  4893  5138   un
  7976  4894  5050   un
  7977  4895  5051   un
  7978  4895  5139   un
  7979  4896  5052   un
  7980  4897  5053   un
  7981  4897  5140   un
  7982  4898  5054   un
  7983  4899  5055   un
  7984  4899  5141   un
  7985  4900  5056   un
  7986  4901  5057   un
  7987  4901  5142   un
  7988  4902  5058   un
  7989  4903  5059   un
  7990  4903  5143   un
  7991  4904  4964   un
  7992  4905  4965   un
  7993  4906  4966   un
  7994  4907  4967   un
  7995  4908  4968   un
  7996  4909  4969   un
  7997  4910  4970   un
  7998  4911  4971   un
  7999  4912  4972   un
  8000  4913  4973   un
  8001  4914  4974   un
  8002  4915  4975   un
  8003  4916  4976   un
  8004  4917  4977   un
  8005  4918  4978   un
  8006  4919  4979   un
  8007  4920  4980   un
  8008  4921  4981   un
  8009  4922  4982   un
  8010  4923  4983   un
  8011  4924  4984   un
  8012  4925  4985   un
  8013  4926  4986   un
  8014  4927  4987   un
  8015  4928  5047   un
  8016  4218  5044   un
  8017  4929  5046   un
  8018  4219  5045   un
  8019  4930  5039   un
  8020  4853  5036   un
  8021  4931  5038   un
  8022  4854  5037   un
  8023  4932  5043   un
  8024  2159  5040   un
  8025  4933  5042   un
  8026  2160  5041   un
  8027  4934  5059   un
  8028  4935  5056   un
  8029  4935  5138   un
  8030  4936  5058   un
  8031  4937  5057   un
  8032  4937  5139   un
  8033  4938  5051   un
  8034  4939  5048   un
  8035  4939  5140   un
  8036  4940  5050   un
  8037  4941  5049   un
  8038  4941  5141   un
  8039  4942  5055   un
  8040  4943  5052   un
  8041  4943  5142   un
  8042  4944  5054   un
  8043  4945  5053   un
  8044  4945  5143   un
  8045  4946  4987   un
  8046  4946  5127   un
  8047  4947  4984   un
  8048  4947  5129   un
  8049  4948  4986   un
  8050  4949  4985   un
  8051  4950  4979   un
  8052  4950  5131   un
  8053  4951  4976   un
  8054  4951  5132   un
  8055  4952  4978   un
  8056  4953  4977   un
  8057  4954  4983   un
  8058  4954  5135   un
  8059  4955  4980   un
  8060  4955  5136   un
  8061  4956  4982   un
  8062  4957  4981   un
  8063  4857  4975   un
  8064  4858  4972   un
  8065  4958  4974   un
  8066  4959  4973   un
  8067  2167  4967   un
  8068  2168  4964   un
  8069  4960  4966   un
  8070  4961  4965   un
  8071  4232  4971   un
  8072  4233  4968   un
  8073  4962  4970   un
  8074  4963  4969   un
  8075  4964  4988   un
  8076  4965  4989   un
  8077  4966  4990   un
  8078  4967  4991   un
  8079  4968  4992   un
  8080  4969  4993   un
  8081  4970  4994   un
  8082  4971  4995   un
  8083  4972  4996   un
  8084  4973  4997   un
  8085  4974  4998   un
  8086  4975  4999   un
  8087  4976  5000   un
  8088  4977  5001   un
  8089  4978  5002   un
  8090  4979  5003   un
  8091  4980  5004   un
  8092  4981  5005   un
  8093  4982  5006   un
  8094  4983  5007   un
  8095  4984  5008   un
  8096  4985  5009   un
  8097  4986  5010   un
  8098  4987  5011   un
  8099  4988  4989   un
  8100  4988  5012    1
  8101  4989  5013    1
  8102  4990  4991   un
  8103  4990  5014    1
  8104  4991  5015    1
  8105  4992  4993   un
  8106  4992  5016    1
  8107  4993  5017    1
  8108  4994  4995   un
  8109  4994  5018    1
  8110  4995  5019    1
  8111  4996  4997   un
  8112  4996  5020    1
  8113  4997  5021    1
  8114  4998  4999   un
  8115  4998  5022    1
  8116  4999  5023    1
  8117  5000  5001   un
  8118  5000  5024    1
  8119  5001  5025    1
  8120  5002  5003   un
  8121  5002  5026    1
  8122  5003  5027    1
  8123  5004  5005   un
  8124  5004  5028    1
  8125  5005  5029    1
  8126  5006  5007   un
  8127  5006  5030    1
  8128  5007  5031    1
  8129  5008  5009   un
  8130  5008  5032    1
  8131  5009  5033    1
  8132  5010  5011   un
  8133  5010  5034    1
  8134  5011  5035    1
  8135  5036  5060   un
  8136  5037  5061   un
  8137  5038  5062   un
  8138  5039  5063   un
  8139  5040  5064   un
  8140  5041  5065   un
  8141  5042  5066   un
  8142  5043  5067   un
  8143  5044  5068   un
  8144  5045  5069   un
  8145  5046  5070   un
  8146  5047  5071   un
  8147  5048  5072   un
  8148  5049  5073   un
  8149  5050  5074   un
  8150  5051  5075   un
  8151  5052  5076   un
  8152  5053  5077   un
  8153  5054  5078   un
  8154  5055  5079   un
  8155  5056  5080   un
  8156  5057  5081   un
  8157  5058  5082   un
  8158  5059  5083   un
  8159  5060  5061   un
  8160  5060  5084    1
  8161  5061  5085    1
  8162  5062  5063   un
  8163  5062  5086    1
  8164  5063  5087    1
  8165  5064  5065   un
  8166  5064  5088    1
  8167  5065  5089    1
  8168  5066  5067   un
  8169  5066  5090    1
  8170  5067  5091    1
  8171  5068  5069   un
  8172  5068  5092    1
  8173  5069  5093    1
  8174  5070  5071   un
  8175  5070  5094    1
  8176  5071  5095    1
  8177  5072  5073   un
  8178  5072  5096    1
  8179  5073  5097    1
  8180  5074  5075   un
  8181  5074  5098    1
  8182  5075  5099    1
  8183  5076  5077   un
  8184  5076  5100    1
  8185  5077  5101    1
  8186  5078  5079   un
  8187  5078  5102    1
  8188  5079  5103    1
  8189  5080  5081   un
  8190  5080  5104    1
  8191  5081  5105    1
  8192  5082  5083   un
  8193  5082  5106    1
  8194  5083  5107    1
  8195  5108  5127    1
  8196  5108  2143    1
  8197  5109  5129    1
  8198  5109  5141    1
  8199  5111  5131    1
  8200  5111  4208    1
  8201  5112  5132    1
  8202  5112  5143    1
  8203  5114  5135    1
  8204  5114  4839    1
  8205  5115  5136    1
  8206  5115  5139    1
  8207  5118  5131    1
  8208  5120  5135    1
  8209  5123  5140    1
  8210  5123  5143    1
  8211  5124  5138    1
  8212  5124  5141    1
  8213  5126  5139    1
  8214  5126  5142    1
  8215  5127  2136   un
  8216  5127  2143   un
  8217  5127  5174    1
  8218  5128  4834   un
  8219  5128  4844   un
  8220  5128  5162    1
  8221  5128  5170    1
  8222  5128  5175    1
  8223  4190  5134   un
  8224  4190  5176    1
  8225  5129  5133   un
  8226  5129  5141   un
  8227  5129  5171    1
  8228  4192  5131   un
  8229  4192  5178    1
  8230  5130  5136   un
  8231  5130  5142   un
  8232  5130  5163    1
  8233  5130  5169    1
  8234  3163  5172    1
  8235  5131  4208   un
  8236  5131  5178    1
  8237  1797  5173    1
  8238  4834  5175    1
  8239  5132  5137   un
  8240  5132  5143   un
  8241  5132  5167    1
  8242  4835  5135   un
  8243  4835  5177    1
  8244  5133  5138   un
  8245  5133  5164    1
  8246  5133  5171    1
  8247  5134  4205   un
  8248  5134  5165    1
  8249  5134  5168    1
  8250  5134  5176    1
  8251  5135  4839   un
  8252  5135  5177    1
  8253  5136  5139   un
  8254  5136  5169    1
  8255  2136  5174    1
  8256  5137  5140   un
  8257  5137  5166    1
  8258  5137  5167    1
  8259  5138  5141   un
  8260  5138  5164    1
  8261  5139  5142   un
  8262  5140  5143   un
  8263  5140  5166    1
  8264  4205  5165    1
  8265  5142  5163    1
  8266  1813  5173    1
  8267  4844  5162    1
  8268  2474  5192   un
  8269  2474  5212   un
  8270  2474  5236   un
  8271  2474  5479   un
  8272  2474  5500    1
  8273  5179  5189   un
  8274  5179  5213   un
  8275  5179  5434    1
  8276  5179  5448   un
  8277  5179  5450   un
  8278  5179  5459   un
  8279  5179  5463   un
  8280  5179  5471   un
  8281  5179  5480   un
  8282  5179  5488    1
  8283  5179  5497    1
  8284  5179  5502    1
  8285  5180  5181   un
  8286  5180  5182   un
  8287  5180  5188   un
  8288  5180  5191   un
  8289  5180  5193   un
  8290  5180  5214   un
  8291  5180  5237   un
  8292  5180  5258   un
  8293  5180  5421    1
  8294  5180  5433    1
  8295  5180  5435    1
  8296  5180  5436    1
  8297  2476  5215   un
  8298  2476  5259   un
  8299  2476  5444   un
  8300  2476  5464   un
  8301  2476  5472   un
  8302  2476  5499    1
  8303  2476  5503    1
  8304  2478  5194   un
  8305  2478  5216   un
  8306  2478  5238   un
  8307  2481  5217   un
  8308  2481  5465   un
  8309  2481  5473   un
  8310  5181  5182   un
  8311  5181  5185   un
  8312  5181  5191   un
  8313  5181  5196   un
  8314  5181  5218   un
  8315  5181  5240   un
  8316  5181  5262   un
  8317  5181  5424    1
  8318  5181  5431    1
  8319  5181  5435    1
  8320  5181  5436    1
  8321  4525  5219   un
  8322  4525  5263   un
  8323  4525  5466   un
  8324  4525  5474   un
  8325  4525  5494    1
  8326  4526  5198   un
  8327  4526  5220   un
  8328  4526  5242   un
  8329  4526  5430    1
  8330  4527  5221   un
  8331  4527  5432    1
  8332  4527  5445   un
  8333  4527  5467   un
  8334  4527  5475   un
  8335  4527  5504    1
  8336  5182  5185   un
  8337  5182  5188   un
  8338  5182  5199   un
  8339  5182  5222   un
  8340  5182  5243   un
  8341  5182  5266   un
  8342  5182  5427    1
  8343  5182  5431    1
  8344  5182  5433    1
  8345  5182  5436    1
  8346  5183  5187   un
  8347  5183  5223   un
  8348  5183  5267   un
  8349  5183  5428    1
  8350  5183  5429    1
  8351  5183  5441   un
  8352  5183  5446   un
  8353  5183  5453   un
  8354  5183  5468   un
  8355  5183  5476   un
  8356  5183  5496    1
  8357  5183  5501    1
  8358  5184  5200   un
  8359  5184  5224   un
  8360  5184  5244   un
  8361  5184  5423    1
  8362  5184  5437    1
  8363  5184  5447   un
  8364  5184  5452   un
  8365  5184  5457   un
  8366  5184  5462   un
  8367  5184  5481   un
  8368  5184  5492    1
  8369  5184  5493    1
  8370  4531  5225   un
  8371  4531  5482   un
  8372  4531  5494    1
  8373  5185  5188   un
  8374  5185  5191   un
  8375  5185  5202   un
  8376  5185  5226   un
  8377  5185  5246   un
  8378  5185  5270   un
  8379  5185  5424    1
  8380  5185  5427    1
  8381  5185  5431    1
  8382  5185  5439    1
  8383  4532  5227   un
  8384  4532  5271   un
  8385  4532  5422    1
  8386  4532  5432    1
  8387  4532  5445   un
  8388  5186  5204   un
  8389  5186  5228   un
  8390  5186  5248   un
  8391  5186  5426    1
  8392  5186  5440    1
  8393  5186  5443   un
  8394  5186  5451   un
  8395  5186  5456   un
  8396  5186  5460   un
  8397  5186  5483   un
  8398  5186  5489    1
  8399  5186  5495    1
  8400  5187  5229   un
  8401  5187  5428    1
  8402  5187  5441   un
  8403  5187  5453   un
  8404  5187  5461   un
  8405  5187  5469   un
  8406  5187  5477   un
  8407  5187  5484   un
  8408  5187  5487    1
  8409  5187  5496    1
  8410  5187  5505    1
  8411  5188  5191   un
  8412  5188  5206   un
  8413  5188  5230   un
  8414  5188  5250   un
  8415  5188  5272   un
  8416  5188  5421    1
  8417  5188  5427    1
  8418  5188  5433    1
  8419  5188  5439    1
  8420  5189  5231   un
  8421  5189  5273   un
  8422  5189  5425    1
  8423  5189  5434    1
  8424  5189  5450   un
  8425  5189  5454   un
  8426  5189  5459   un
  8427  5189  5470   un
  8428  5189  5478   un
  8429  5189  5488    1
  8430  5189  5506    1
  8431  5190  5208   un
  8432  5190  5232   un
  8433  5190  5252   un
  8434  5190  5420    1
  8435  5190  5438    1
  8436  5190  5442   un
  8437  5190  5449   un
  8438  5190  5455   un
  8439  5190  5458   un
  8440  5190  5485   un
  8441  5190  5491    1
  8442  5190  5498    1
  8443  2502  5233   un
  8444  2502  5444   un
  8445  2502  5486   un
  8446  2502  5490    1
  8447  2502  5499    1
  8448  5191  5210   un
  8449  5191  5234   un
  8450  5191  5254   un
  8451  5191  5274   un
  8452  5191  5421    1
  8453  5191  5424    1
  8454  5191  5435    1
  8455  5191  5439    1
  8456  2505  5235   un
  8457  2505  5275   un
  8458  5192  5348   un
  8459  4539  5349   un
  8460  5193  5350   un
  8461  4540  5351   un
  8462  5194  5352   un
  8463  5195  5353   un
  8464  5195  2480   un
  8465  5196  5354   un
  8466  5197  5355   un
  8467  5197  4524   un
  8468  5198  5356   un
  8469  2510  5357   un
  8470  5199  5358   un
  8471  2511  5359   un
  8472  5200  5360   un
  8473  5201  5361   un
  8474  5201  5455   un
  8475  5202  5362   un
  8476  5203  5363   un
  8477  5203  5456   un
  8478  5204  5364   un
  8479  5205  5365   un
  8480  5205  5457   un
  8481  5206  5366   un
  8482  5207  5367   un
  8483  5207  5458   un
  8484  5208  5368   un
  8485  5209  5369   un
  8486  5209  5460   un
  8487  5210  5370   un
  8488  5211  5371   un
  8489  5211  5462   un
  8490  5212  5276   un
  8491  5213  5277   un
  8492  5214  5278   un
  8493  5215  5279   un
  8494  5216  5280   un
  8495  5217  5281   un
  8496  5218  5282   un
  8497  5219  5283   un
  8498  5220  5284   un
  8499  5221  5285   un
  8500  5222  5286   un
  8501  5223  5287   un
  8502  5224  5288   un
  8503  5225  5289   un
  8504  5226  5290   un
  8505  5227  5291   un
  8506  5228  5292   un
  8507  5229  5293   un
  8508  5230  5294   un
  8509  5231  5295   un
  8510  5232  5296   un
  8511  5233  5297   un
  8512  5234  5298   un
  8513  5235  5299   un
  8514  5236  5359   un
  8515  4547  5356   un
  8516  5237  5358   un
  8517  4548  5357   un
  8518  5238  5351   un
  8519  5239  5348   un
  8520  5239  2480   un
  8521  5240  5350   un
  8522  5241  5349   un
  8523  5241  4524   un
  8524  5242  5355   un
  8525  2520  5352   un
  8526  5243  5354   un
  8527  2521  5353   un
  8528  5244  5371   un
  8529  5245  5368   un
  8530  5245  5455   un
  8531  5246  5370   un
  8532  5247  5369   un
  8533  5247  5456   un
  8534  5248  5363   un
  8535  5249  5360   un
  8536  5249  5457   un
  8537  5250  5362   un
  8538  5251  5361   un
  8539  5251  5458   un
  8540  5252  5367   un
  8541  5253  5364   un
  8542  5253  5460   un
  8543  5254  5366   un
  8544  5255  5365   un
  8545  5255  5462   un
  8546  5256  5299   un
  8547  5256  2827   un
  8548  5257  5296   un
  8549  5257  5442   un
  8550  5258  5298   un
  8551  5259  5297   un
  8552  5260  5291   un
  8553  5260  5445   un
  8554  5261  5288   un
  8555  5261  5447   un
  8556  5262  5290   un
  8557  5263  5289   un
  8558  5264  5295   un
  8559  5264  5450   un
  8560  5265  5292   un
  8561  5265  5451   un
  8562  5266  5294   un
  8563  5267  5293   un
  8564  5268  5287   un
  8565  5268  5453   un
  8566  5269  5284   un
  8567  5269  4530   un
  8568  5270  5286   un
  8569  5271  5285   un
  8570  2532  5279   un
  8571  2533  5276   un
  8572  5272  5278   un
  8573  5273  5277   un
  8574  4561  5283   un
  8575  4562  5280   un
  8576  5274  5282   un
  8577  5275  5281   un
  8578  5276  5300   un
  8579  5277  5301   un
  8580  5278  5302   un
  8581  5279  5303   un
  8582  5280  5304   un
  8583  5281  5305   un
  8584  5282  5306   un
  8585  5283  5307   un
  8586  5284  5308   un
  8587  5285  5309   un
  8588  5286  5310   un
  8589  5287  5311   un
  8590  5288  5312   un
  8591  5289  5313   un
  8592  5290  5314   un
  8593  5291  5315   un
  8594  5292  5316   un
  8595  5293  5317   un
  8596  5294  5318   un
  8597  5295  5319   un
  8598  5296  5320   un
  8599  5297  5321   un
  8600  5298  5322   un
  8601  5299  5323   un
  8602  5300  5301   un
  8603  5300  5324    1
  8604  5301  5325    1
  8605  5302  5303   un
  8606  5302  5326    1
  8607  5303  5327    1
  8608  5304  5305   un
  8609  5304  5328    1
  8610  5305  5329    1
  8611  5306  5307   un
  8612  5306  5330    1
  8613  5307  5331    1
  8614  5308  5309   un
  8615  5308  5332    1
  8616  5309  5333    1
  8617  5310  5311   un
  8618  5310  5334    1
  8619  5311  5335    1
  8620  5312  5313   un
  8621  5312  5336    1
  8622  5313  5337    1
  8623  5314  5315   un
  8624  5314  5338    1
  8625  5315  5339    1
  8626  5316  5317   un
  8627  5316  5340    1
  8628  5317  5341    1
  8629  5318  5319   un
  8630  5318  5342    1
  8631  5319  5343    1
  8632  5320  5321   un
  8633  5320  5344    1
  8634  5321  5345    1
  8635  5322  5323   un
  8636  5322  5346    1
  8637  5323  5347    1
  8638  5348  5372   un
  8639  5349  5373   un
  8640  5350  5374   un
  8641  5351  5375   un
  8642  5352  5376   un
  8643  5353  5377   un
  8644  5354  5378   un
  8645  5355  5379   un
  8646  5356  5380   un
  8647  5357  5381   un
  8648  5358  5382   un
  8649  5359  5383   un
  8650  5360  5384   un
  8651  5361  5385   un
  8652  5362  5386   un
  8653  5363  5387   un
  8654  5364  5388   un
  8655  5365  5389   un
  8656  5366  5390   un
  8657  5367  5391   un
  8658  5368  5392   un
  8659  5369  5393   un
  8660  5370  5394   un
  8661  5371  5395   un
  8662  5372  5373   un
  8663  5372  5396    1
  8664  5373  5397    1
  8665  5374  5375   un
  8666  5374  5398    1
  8667  5375  5399    1
  8668  5376  5377   un
  8669  5376  5400    1
  8670  5377  5401    1
  8671  5378  5379   un
  8672  5378  5402    1
  8673  5379  5403    1
  8674  5380  5381   un
  8675  5380  5404    1
  8676  5381  5405    1
  8677  5382  5383   un
  8678  5382  5406    1
  8679  5383  5407    1
  8680  5384  5385   un
  8681  5384  5408    1
  8682  5385  5409    1
  8683  5386  5387   un
  8684  5386  5410    1
  8685  5387  5411    1
  8686  5388  5389   un
  8687  5388  5412    1
  8688  5389  5413    1
  8689  5390  5391   un
  8690  5390  5414    1
  8691  5391  5415    1
  8692  5392  5393   un
  8693  5392  5416    1
  8694  5393  5417    1
  8695  5394  5395   un
  8696  5394  5418    1
  8697  5395  5419    1
  8698  5420  5442    1
  8699  5420  5458    1
  8700  5422  5445    1
  8701  5422  4536    1
  8702  5423  5447    1
  8703  5423  5462    1
  8704  5425  5450    1
  8705  5425  5454    1
  8706  5426  5451    1
  8707  5426  5456    1
  8708  5428  5453    1
  8709  5429  5446    1
  8710  5429  5453    1
  8711  5430  4524    1
  8712  5430  4530    1
  8713  5432  5445    1
  8714  5434  5450    1
  8715  5437  5457    1
  8716  5437  5462    1
  8717  5438  5455    1
  8718  5438  5458    1
  8719  5440  5456    1
  8720  5440  5460    1
  8721  5441  5446   un
  8722  5441  5461   un
  8723  5441  5487    1
  8724  5441  5496    1
  8725  5441  5501    1
  8726  5442  5449   un
  8727  5442  5458   un
  8728  5442  5498    1
  8729  4520  5445   un
  8730  4520  5504    1
  8731  5443  5451   un
  8732  5443  5460   un
  8733  5443  5489    1
  8734  5443  5495    1
  8735  5444  2486   un
  8736  5444  2495   un
  8737  5444  5490    1
  8738  5444  5499    1
  8739  5444  5503    1
  8740  5445  4536   un
  8741  5445  5504    1
  8742  2480  5500    1
  8743  5446  5453   un
  8744  5446  5461   un
  8745  5446  5501    1
  8746  5447  5452   un
  8747  5447  5462   un
  8748  5447  5493    1
  8749  5448  5450   un
  8750  5448  5454   un
  8751  5448  5459   un
  8752  5448  5497    1
  8753  5448  5502    1
  8754  5449  5455   un
  8755  5449  5491    1
  8756  5449  5498    1
  8757  4836  5494    1
  8758  5450  5454   un
  8759  5450  5502    1
  8760  2486  5503    1
  8761  5451  5456   un
  8762  5451  5495    1
  8763  5452  5457   un
  8764  5452  5492    1
  8765  5452  5493    1
  8766  5453  5461   un
  8767  5453  5505    1
  8768  5454  5459   un
  8769  5454  5506    1
  8770  5455  5458   un
  8771  5455  5491    1
  8772  2495  5490    1
  8773  5456  5460   un
  8774  5457  5462   un
  8775  5457  5492    1
  8776  5459  5488    1
  8777  5459  5497    1
  8778  5459  5506    1
  8779  5460  5489    1
  8780  2504  5500    1
  8781  5461  5487    1
  8782  5461  5505    1
  8783  2827  5516   un
  8784  2827  5534   un
  8785  2827  5558   un
  8786  2827  5801    1
  8787  5442  5535   un
  8788  5442  5749    1
  8789  5442  5763   un
  8790  5442  5772   un
  8791  5442  5778   un
  8792  5442  5803    1
  8793  5507  5508   un
  8794  5507  5509   un
  8795  5507  5513   un
  8796  5507  5515   un
  8797  5507  5517   un
  8798  5507  5536   un
  8799  5507  5559   un
  8800  5507  5578   un
  8801  5507  5739    1
  8802  5507  5748    1
  8803  5507  5750    1
  8804  5507  5751    1
  8805  2829  5537   un
  8806  2829  5579   un
  8807  2829  5759   un
  8808  2829  5773   un
  8809  2829  5779   un
  8810  2829  5800    1
  8811  2829  5804    1
  8812  2831  5518   un
  8813  2831  5538   un
  8814  2831  5560   un
  8815  2832  5539   un
  8816  2832  5774   un
  8817  2832  5780   un
  8818  5508  5509   un
  8819  5508  5511   un
  8820  5508  5515   un
  8821  5508  5519   un
  8822  5508  5540   un
  8823  5508  5561   un
  8824  5508  5582   un
  8825  5508  5742    1
  8826  5508  5746    1
  8827  5508  5750    1
  8828  5508  5751    1
  8829  4835  5541   un
  8830  4835  5583   un
  8831  4835  5775   un
  8832  4835  5781   un
  8833  4835  5796    1
  8834  4836  5520   un
  8835  4836  5542   un
  8836  4836  5562   un
  8837  4837  5543   un
  8838  4837  5747    1
  8839  4837  5760   un
  8840  4837  5776   un
  8841  4837  5782   un
  8842  4837  5805    1
  8843  5509  5511   un
  8844  5509  5513   un
  8845  5509  5521   un
  8846  5509  5544   un
  8847  5509  5563   un
  8848  5509  5586   un
  8849  5509  5745    1
  8850  5509  5746    1
  8851  5509  5748    1
  8852  5509  5751    1
  8853  5452  5545   un
  8854  5452  5587   un
  8855  5452  5756   un
  8856  5452  5777   un
  8857  5452  5783   un
  8858  5452  5798    1
  8859  5452  5802    1
  8860  5510  5522   un
  8861  5510  5546   un
  8862  5510  5564   un
  8863  5510  5741    1
  8864  5510  5752    1
  8865  5510  5761   un
  8866  5510  5765   un
  8867  5510  5768   un
  8868  5510  5771   un
  8869  5510  5784   un
  8870  5510  5794    1
  8871  5510  5795    1
  8872  4839  5547   un
  8873  4839  5785   un
  8874  4839  5796    1
  8875  5511  5513   un
  8876  5511  5515   un
  8877  5511  5524   un
  8878  5511  5548   un
  8879  5511  5566   un
  8880  5511  5588   un
  8881  5511  5742    1
  8882  5511  5745    1
  8883  5511  5746    1
  8884  5511  5754    1
  8885  4840  5549   un
  8886  4840  5589   un
  8887  4840  5740    1
  8888  4840  5747    1
  8889  4840  5760   un
  8890  5512  5526   un
  8891  5512  5550   un
  8892  5512  5568   un
  8893  5512  5744    1
  8894  5512  5755    1
  8895  5512  5758   un
  8896  5512  5764   un
  8897  5512  5767   un
  8898  5512  5770   un
  8899  5512  5786   un
  8900  5512  5791    1
  8901  5512  5797    1
  8902  5457  5551   un
  8903  5457  5756   un
  8904  5457  5787   un
  8905  5457  5790    1
  8906  5457  5798    1
  8907  5513  5515   un
  8908  5513  5528   un
  8909  5513  5552   un
  8910  5513  5570   un
  8911  5513  5590   un
  8912  5513  5739    1
  8913  5513  5745    1
  8914  5513  5748    1
  8915  5513  5754    1
  8916  5458  5553   un
  8917  5458  5591   un
  8918  5458  5743    1
  8919  5458  5749    1
  8920  5458  5763   un
  8921  5514  5530   un
  8922  5514  5554   un
  8923  5514  5572   un
  8924  5514  5738    1
  8925  5514  5753    1
  8926  5514  5757   un
  8927  5514  5762   un
  8928  5514  5766   un
  8929  5514  5769   un
  8930  5514  5788   un
  8931  5514  5793    1
  8932  5514  5799    1
  8933  2847  5555   un
  8934  2847  5759   un
  8935  2847  5789   un
  8936  2847  5792    1
  8937  2847  5800    1
  8938  5515  5532   un
  8939  5515  5556   un
  8940  5515  5574   un
  8941  5515  5592   un
  8942  5515  5739    1
  8943  5515  5742    1
  8944  5515  5750    1
  8945  5515  5754    1
  8946  2848  5557   un
  8947  2848  5593   un
  8948  5516  5666   un
  8949  4845  5667   un
  8950  5517  5668   un
  8951  4846  5669   un
  8952  5518  5670   un
  8953  5465  5671   un
  8954  5519  5672   un
  8955  5466  5673   un
  8956  5520  5674   un
  8957  2853  5675   un
  8958  5521  5676   un
  8959  2854  5677   un
  8960  5522  5678   un
  8961  5523  5679   un
  8962  5523  5766   un
  8963  5524  5680   un
  8964  5525  5681   un
  8965  5525  5767   un
  8966  5526  5682   un
  8967  5527  5683   un
  8968  5527  5768   un
  8969  5528  5684   un
  8970  5529  5685   un
  8971  5529  5769   un
  8972  5530  5686   un
  8973  5531  5687   un
  8974  5531  5770   un
  8975  5532  5688   un
  8976  5533  5689   un
  8977  5533  5771   un
  8978  5534  5594   un
  8979  5535  5595   un
  8980  5536  5596   un
  8981  5537  5597   un
  8982  5538  5598   un
  8983  5539  5599   un
  8984  5540  5600   un
  8985  5541  5601   un
  8986  5542  5602   un
  8987  5543  5603   un
  8988  5544  5604   un
  8989  5545  5605   un
  8990  5546  5606   un
  8991  5547  5607   un
  8992  5548  5608   un
  8993  5549  5609   un
  8994  5550  5610   un
  8995  5551  5611   un
  8996  5552  5612   un
  8997  5553  5613   un
  8998  5554  5614   un
  8999  5555  5615   un
  9000  5556  5616   un
  9001  5557  5617   un
  9002  5558  5677   un
  9003  4851  5674   un
  9004  5559  5676   un
  9005  4852  5675   un
  9006  5560  5669   un
  9007  5473  5666   un
  9008  5561  5668   un
  9009  5474  5667   un
  9010  5562  5673   un
  9011  2861  5670   un
  9012  5563  5672   un
  9013  2862  5671   un
  9014  5564  5689   un
  9015  5565  5686   un
  9016  5565  5766   un
  9017  5566  5688   un
  9018  5567  5687   un
  9019  5567  5767   un
  9020  5568  5681   un
  9021  5569  5678   un
  9022  5569  5768   un
  9023  5570  5680   un
  9024  5571  5679   un
  9025  5571  5769   un
  9026  5572  5685   un
  9027  5573  5682   un
  9028  5573  5770   un
  9029  5574  5684   un
  9030  5575  5683   un
  9031  5575  5771   un
  9032  5576  5617   un
  9033  5576  3159   un
  9034  5577  5614   un
  9035  5577  5757   un
  9036  5578  5616   un
  9037  5579  5615   un
  9038  5580  5609   un
  9039  5580  5760   un
  9040  5581  5606   un
  9041  5581  5761   un
  9042  5582  5608   un
  9043  5583  5607   un
  9044  5584  5613   un
  9045  5584  5763   un
  9046  5585  5610   un
  9047  5585  5764   un
  9048  5586  5612   un
  9049  5587  5611   un
  9050  5481  5605   un
  9051  5482  5602   un
  9052  5588  5604   un
  9053  5589  5603   un
  9054  2869  5597   un
  9055  2870  5594   un
  9056  5590  5596   un
  9057  5591  5595   un
  9058  4861  5601   un
  9059  4862  5598   un
  9060  5592  5600   un
  9061  5593  5599   un
  9062  5594  5618   un
  9063  5595  5619   un
  9064  5596  5620   un
  9065  5597  5621   un
  9066  5598  5622   un
  9067  5599  5623   un
  9068  5600  5624   un
  9069  5601  5625   un
  9070  5602  5626   un
  9071  5603  5627   un
  9072  5604  5628   un
  9073  5605  5629   un
  9074  5606  5630   un
  9075  5607  5631   un
  9076  5608  5632   un
  9077  5609  5633   un
  9078  5610  5634   un
  9079  5611  5635   un
  9080  5612  5636   un
  9081  5613  5637   un
  9082  5614  5638   un
  9083  5615  5639   un
  9084  5616  5640   un
  9085  5617  5641   un
  9086  5618  5619   un
  9087  5618  5642    1
  9088  5619  5643    1
  9089  5620  5621   un
  9090  5620  5644    1
  9091  5621  5645    1
  9092  5622  5623   un
  9093  5622  5646    1
  9094  5623  5647    1
  9095  5624  5625   un
  9096  5624  5648    1
  9097  5625  5649    1
  9098  5626  5627   un
  9099  5626  5650    1
  9100  5627  5651    1
  9101  5628  5629   un
  9102  5628  5652    1
  9103  5629  5653    1
  9104  5630  5631   un
  9105  5630  5654    1
  9106  5631  5655    1
  9107  5632  5633   un
  9108  5632  5656    1
  9109  5633  5657    1
  9110  5634  5635   un
  9111  5634  5658    1
  9112  5635  5659    1
  9113  5636  5637   un
  9114  5636  5660    1
  9115  5637  5661    1
  9116  5638  5639   un
  9117  5638  5662    1
  9118  5639  5663    1
  9119  5640  5641   un
  9120  5640  5664    1
  9121  5641  5665    1
  9122  5666  5690   un
  9123  5667  5691   un
  9124  5668  5692   un
  9125  5669  5693   un
  9126  5670  5694   un
  9127  5671  5695   un
  9128  5672  5696   un
  9129  5673  5697   un
  9130  5674  5698   un
  9131  5675  5699   un
  9132  5676  5700   un
  9133  5677  5701   un
  9134  5678  5702   un
  9135  5679  5703   un
  9136  5680  5704   un
  9137  5681  5705   un
  9138  5682  5706   un
  9139  5683  5707   un
  9140  5684  5708   un
  9141  5685  5709   un
  9142  5686  5710   un
  9143  5687  5711   un
  9144  5688  5712   un
  9145  5689  5713   un
  9146  5690  5691   un
  9147  5690  5714    1
  9148  5691  5715    1
  9149  5692  5693   un
  9150  5692  5716    1
  9151  5693  5717    1
  9152  5694  5695   un
  9153  5694  5718    1
  9154  5695  5719    1
  9155  5696  5697   un
  9156  5696  5720    1
  9157  5697  5721    1
  9158  5698  5699   un
  9159  5698  5722    1
  9160  5699  5723    1
  9161  5700  5701   un
  9162  5700  5724    1
  9163  5701  5725    1
  9164  5702  5703   un
  9165  5702  5726    1
  9166  5703  5727    1
  9167  5704  5705   un
  9168  5704  5728    1
  9169  5705  5729    1
  9170  5706  5707   un
  9171  5706  5730    1
  9172  5707  5731    1
  9173  5708  5709   un
  9174  5708  5732    1
  9175  5709  5733    1
  9176  5710  5711   un
  9177  5710  5734    1
  9178  5711  5735    1
  9179  5712  5713   un
  9180  5712  5736    1
  9181  5713  5737    1
  9182  5738  5757    1
  9183  5738  5769    1
  9184  5740  5760    1
  9185  5740  4843    1
  9186  5741  5761    1
  9187  5741  5771    1
  9188  5743  5763    1
  9189  5743  5455    1
  9190  5744  5764    1
  9191  5744  5767    1
  9192  5747  5760    1
  9193  5749  5763    1
  9194  5752  5768    1
  9195  5752  5771    1
  9196  5753  5766    1
  9197  5753  5769    1
  9198  5755  5767    1
  9199  5755  5770    1
  9200  5756  5447   un
  9201  5756  5462   un
  9202  5756  5790    1
  9203  5756  5798    1
  9204  5756  5802    1
  9205  5757  5762   un
  9206  5757  5769   un
  9207  5757  5799    1
  9208  4832  5760   un
  9209  4832  5805    1
  9210  5758  5764   un
  9211  5758  5770   un
  9212  5758  5791    1
  9213  5758  5797    1
  9214  5759  2836   un
  9215  5759  2842   un
  9216  5759  5792    1
  9217  5759  5800    1
  9218  5759  5804    1
  9219  5760  4843   un
  9220  5760  5805    1
  9221  2481  5801    1
  9222  5447  5802    1
  9223  5761  5765   un
  9224  5761  5771   un
  9225  5761  5795    1
  9226  5449  5763   un
  9227  5449  5803    1
  9228  5762  5766   un
  9229  5762  5793    1
  9230  5762  5799    1
  9231  5135  5796    1
  9232  5763  5455   un
  9233  5763  5803    1
  9234  2836  5804    1
  9235  5764  5767   un
  9236  5764  5797    1
  9237  5765  5768   un
  9238  5765  5794    1
  9239  5765  5795    1
  9240  5766  5769   un
  9241  5766  5793    1
  9242  2842  5792    1
  9243  5767  5770   un
  9244  5768  5771   un
  9245  5768  5794    1
  9246  5770  5791    1
  9247  2505  5801    1
  9248  5462  5790    1
  9249  3159  5815   un
  9250  3159  5833   un
  9251  3159  5857   un
  9252  3159  6104    1
  9253  5757  5834   un
  9254  5757  6049    1
  9255  5757  6065   un
  9256  5757  6074   un
  9257  5757  6080   un
  9258  5757  6108    1
  9259  5806  5807   un
  9260  5806  5808   un
  9261  5806  5812   un
  9262  5806  5814   un
  9263  5806  5816   un
  9264  5806  5835   un
  9265  5806  5858   un
  9266  5806  5877   un
  9267  5806  6039    1
  9268  5806  6048    1
  9269  5806  6050    1
  9270  5806  6051    1
  9271  3161  5836   un
  9272  3161  5878   un
  9273  3161  6060   un
  9274  3161  6075   un
  9275  3161  6081   un
  9276  3161  6103    1
  9277  3161  6109    1
  9278  3163  5817   un
  9279  3163  5837   un
  9280  3163  5859   un
  9281  3164  5838   un
  9282  3164  6056   un
  9283  3164  6076   un
  9284  3164  6082   un
  9285  3164  6105    1
  9286  5807  5808   un
  9287  5807  5810   un
  9288  5807  5814   un
  9289  5807  5818   un
  9290  5807  5839   un
  9291  5807  5860   un
  9292  5807  5881   un
  9293  5807  6042    1
  9294  5807  6046    1
  9295  5807  6050    1
  9296  5807  6051    1
  9297  5133  5840   un
  9298  5133  5882   un
  9299  5133  6064   un
  9300  5133  6077   un
  9301  5133  6083   un
  9302  5133  6099    1
  9303  5133  6107    1
  9304  5135  5819   un
  9305  5135  5841   un
  9306  5135  5861   un
  9307  5136  5842   un
  9308  5136  6047    1
  9309  5136  6061   un
  9310  5136  6078   un
  9311  5136  6084   un
  9312  5136  6110    1
  9313  5808  5810   un
  9314  5808  5812   un
  9315  5808  5820   un
  9316  5808  5843   un
  9317  5808  5862   un
  9318  5808  5885   un
  9319  5808  6045    1
  9320  5808  6046    1
  9321  5808  6048    1
  9322  5808  6051    1
  9323  5765  5844   un
  9324  5765  5886   un
  9325  5765  6057   un
  9326  5765  6079   un
  9327  5765  6085   un
  9328  5765  6101    1
  9329  5765  6106    1
  9330  5809  5821   un
  9331  5809  5845   un
  9332  5809  5863   un
  9333  5809  6041    1
  9334  5809  6052    1
  9335  5809  6062   un
  9336  5809  6067   un
  9337  5809  6070   un
  9338  5809  6073   un
  9339  5809  6086   un
  9340  5809  6097    1
  9341  5809  6098    1
  9342  5138  5846   un
  9343  5138  6064   un
  9344  5138  6087   un
  9345  5138  6096    1
  9346  5138  6099    1
  9347  5810  5812   un
  9348  5810  5814   un
  9349  5810  5823   un
  9350  5810  5847   un
  9351  5810  5865   un
  9352  5810  5887   un
  9353  5810  6042    1
  9354  5810  6045    1
  9355  5810  6046    1
  9356  5810  6054    1
  9357  5139  5848   un
  9358  5139  5888   un
  9359  5139  6040    1
  9360  5139  6047    1
  9361  5139  6061   un
  9362  5811  5825   un
  9363  5811  5849   un
  9364  5811  5867   un
  9365  5811  6044    1
  9366  5811  6055    1
  9367  5811  6059   un
  9368  5811  6066   un
  9369  5811  6069   un
  9370  5811  6072   un
  9371  5811  6088   un
  9372  5811  6093    1
  9373  5811  6100    1
  9374  5768  5850   un
  9375  5768  6057   un
  9376  5768  6089   un
  9377  5768  6092    1
  9378  5768  6101    1
  9379  5812  5814   un
  9380  5812  5827   un
  9381  5812  5851   un
  9382  5812  5869   un
  9383  5812  5889   un
  9384  5812  6039    1
  9385  5812  6045    1
  9386  5812  6048    1
  9387  5812  6054    1
  9388  5769  5852   un
  9389  5769  5890   un
  9390  5769  6043    1
  9391  5769  6049    1
  9392  5769  6065   un
  9393  5813  5829   un
  9394  5813  5853   un
  9395  5813  5871   un
  9396  5813  6038    1
  9397  5813  6053    1
  9398  5813  6058   un
  9399  5813  6063   un
  9400  5813  6068   un
  9401  5813  6071   un
  9402  5813  6090   un
  9403  5813  6095    1
  9404  5813  6102    1
  9405  3180  5854   un
  9406  3180  6060   un
  9407  3180  6091   un
  9408  3180  6094    1
  9409  3180  6103    1
  9410  5814  5831   un
  9411  5814  5855   un
  9412  5814  5873   un
  9413  5814  5891   un
  9414  5814  6039    1
  9415  5814  6042    1
  9416  5814  6050    1
  9417  5814  6054    1
  9418  3181  5856   un
  9419  3181  5892   un
  9420  3181  6037    1
  9421  3181  6056   un
  9422  5815  5965   un
  9423  5144  5966   un
  9424  5816  5967   un
  9425  5145  5968   un
  9426  5817  5969   un
  9427  5774  5970   un
  9428  5818  5971   un
  9429  5775  5972   un
  9430  5819  5973   un
  9431  3186  5974   un
  9432  5820  5975   un
  9433  3187  5976   un
  9434  5821  5977   un
  9435  5822  5978   un
  9436  5822  6068   un
  9437  5823  5979   un
  9438  5824  5980   un
  9439  5824  6069   un
  9440  5825  5981   un
  9441  5826  5982   un
  9442  5826  6070   un
  9443  5827  5983   un
  9444  5828  5984   un
  9445  5828  6071   un
  9446  5829  5985   un
  9447  5830  5986   un
  9448  5830  6072   un
  9449  5831  5987   un
  9450  5832  5988   un
  9451  5832  6073   un
  9452  5833  5893   un
  9453  5834  5894   un
  9454  5835  5895   un
  9455  5836  5896   un
  9456  5837  5897   un
  9457  5838  5898   un
  9458  5839  5899   un
  9459  5840  5900   un
  9460  5841  5901   un
  9461  5842  5902   un
  9462  5843  5903   un
  9463  5844  5904   un
  9464  5845  5905   un
  9465  5846  5906   un
  9466  5847  5907   un
  9467  5848  5908   un
  9468  5849  5909   un
  9469  5850  5910   un
  9470  5851  5911   un
  9471  5852  5912   un
  9472  5853  5913   un
  9473  5854  5914   un
  9474  5855  5915   un
  9475  5856  5916   un
  9476  5857  5976   un
  9477  5150  5973   un
  9478  5858  5975   un
  9479  5151  5974   un
  9480  5859  5968   un
  9481  5780  5965   un
  9482  5860  5967   un
  9483  5781  5966   un
  9484  5861  5972   un
  9485  3194  5969   un
  9486  5862  5971   un
  9487  3195  5970   un
  9488  5863  5988   un
  9489  5864  5985   un
  9490  5864  6068   un
  9491  5865  5987   un
  9492  5866  5986   un
  9493  5866  6069   un
  9494  5867  5980   un
  9495  5868  5977   un
  9496  5868  6070   un
  9497  5869  5979   un
  9498  5870  5978   un
  9499  5870  6071   un
  9500  5871  5984   un
  9501  5872  5981   un
  9502  5872  6072   un
  9503  5873  5983   un
  9504  5874  5982   un
  9505  5874  6073   un
  9506  5875  5916   un
  9507  5875  6056   un
  9508  5876  5913   un
  9509  5876  6058   un
  9510  5877  5915   un
  9511  5878  5914   un
  9512  5879  5908   un
  9513  5879  6061   un
  9514  5880  5905   un
  9515  5880  6062   un
  9516  5881  5907   un
  9517  5882  5906   un
  9518  5883  5912   un
  9519  5883  6065   un
  9520  5884  5909   un
  9521  5884  6066   un
  9522  5885  5911   un
  9523  5886  5910   un
  9524  5784  5904   un
  9525  5785  5901   un
  9526  5887  5903   un
  9527  5888  5902   un
  9528  3202  5896   un
  9529  3203  5893   un
  9530  5889  5895   un
  9531  5890  5894   un
  9532  5160  5900   un
  9533  5161  5897   un
  9534  5891  5899   un
  9535  5892  5898   un
  9536  5893  5917   un
  9537  5894  5918   un
  9538  5895  5919   un
  9539  5896  5920   un
  9540  5897  5921   un
  9541  5898  5922   un
  9542  5899  5923   un
  9543  5900  5924   un
  9544  5901  5925   un
  9545  5902  5926   un
  9546  5903  5927   un
  9547  5904  5928   un
  9548  5905  5929   un
  9549  5906  5930   un
  9550  5907  5931   un
  9551  5908  5932   un
  9552  5909  5933   un
  9553  5910  5934   un
  9554  5911  5935   un
  9555  5912  5936   un
  9556  5913  5937   un
  9557  5914  5938   un
  9558  5915  5939   un
  9559  5916  5940   un
  9560  5917  5918   un
  9561  5917  5941    1
  9562  5918  5942    1
  9563  5919  5920   un
  9564  5919  5943    1
  9565  5920  5944    1
  9566  5921  5922   un
  9567  5921  5945    1
  9568  5922  5946    1
  9569  5923  5924   un
  9570  5923  5947    1
  9571  5924  5948    1
  9572  5925  5926   un
  9573  5925  5949    1
  9574  5926  5950    1
  9575  5927  5928   un
  9576  5927  5951    1
  9577  5928  5952    1
  9578  5929  5930   un
  9579  5929  5953    1
  9580  5930  5954    1
  9581  5931  5932   un
  9582  5931  5955    1
  9583  5932  5956    1
  9584  5933  5934   un
  9585  5933  5957    1
  9586  5934  5958    1
  9587  5935  5936   un
  9588  5935  5959    1
  9589  5936  5960    1
  9590  5937  5938   un
  9591  5937  5961    1
  9592  5938  5962    1
  9593  5939  5940   un
  9594  5939  5963    1
  9595  5940  5964    1
  9596  5965  5989   un
  9597  5966  5990   un
  9598  5967  5991   un
  9599  5968  5992   un
  9600  5969  5993   un
  9601  5970  5994   un
  9602  5971  5995   un
  9603  5972  5996   un
  9604  5973  5997   un
  9605  5974  5998   un
  9606  5975  5999   un
  9607  5976  6000   un
  9608  5977  6001   un
  9609  5978  6002   un
  9610  5979  6003   un
  9611  5980  6004   un
  9612  5981  6005   un
  9613  5982  6006   un
  9614  5983  6007   un
  9615  5984  6008   un
  9616  5985  6009   un
  9617  5986  6010   un
  9618  5987  6011   un
  9619  5988  6012   un
  9620  5989  5990   un
  9621  5989  6013    1
  9622  5990  6014    1
  9623  5991  5992   un
  9624  5991  6015    1
  9625  5992  6016    1
  9626  5993  5994   un
  9627  5993  6017    1
  9628  5994  6018    1
  9629  5995  5996   un
  9630  5995  6019    1
  9631  5996  6020    1
  9632  5997  5998   un
  9633  5997  6021    1
  9634  5998  6022    1
  9635  5999  6000   un
  9636  5999  6023    1
  9637  6000  6024    1
  9638  6001  6002   un
  9639  6001  6025    1
  9640  6002  6026    1
  9641  6003  6004   un
  9642  6003  6027    1
  9643  6004  6028    1
  9644  6005  6006   un
  9645  6005  6029    1
  9646  6006  6030    1
  9647  6007  6008   un
  9648  6007  6031    1
  9649  6008  6032    1
  9650  6009  6010   un
  9651  6009  6033    1
  9652  6010  6034    1
  9653  6011  6012   un
  9654  6011  6035    1
  9655  6012  6036    1
  9656  6037  6056    1
  9657  6037  3178    1
  9658  6038  6058    1
  9659  6038  6071    1
  9660  6040  6061    1
  9661  6040  5142    1
  9662  6041  6062    1
  9663  6041  6073    1
  9664  6043  6065    1
  9665  6043  5766    1
  9666  6044  6066    1
  9667  6044  6069    1
  9668  6047  6061    1
  9669  6049  6065    1
  9670  6052  6070    1
  9671  6052  6073    1
  9672  6053  6068    1
  9673  6053  6071    1
  9674  6055  6069    1
  9675  6055  6072    1
  9676  6056  3171   un
  9677  6056  3178   un
  9678  6056  6105    1
  9679  6057  5761   un
  9680  6057  5771   un
  9681  6057  6092    1
  9682  6057  6101    1
  9683  6057  6106    1
  9684  5129  6064   un
  9685  5129  6107    1
  9686  6058  6063   un
  9687  6058  6071   un
  9688  6058  6102    1
  9689  5130  6061   un
  9690  5130  6110    1
  9691  6059  6066   un
  9692  6059  6072   un
  9693  6059  6093    1
  9694  6059  6100    1
  9695  6060  3169   un
  9696  6060  3175   un
  9697  6060  6094    1
  9698  6060  6103    1
  9699  6060  6109    1
  9700  6061  5142   un
  9701  6061  6110    1
  9702  2832  6104    1
  9703  5761  6106    1
  9704  6062  6067   un
  9705  6062  6073   un
  9706  6062  6098    1
  9707  5762  6065   un
  9708  5762  6108    1
  9709  6063  6068   un
  9710  6063  6095    1
  9711  6063  6102    1
  9712  6064  5141   un
  9713  6064  6096    1
  9714  6064  6099    1
  9715  6064  6107    1
  9716  6065  5766   un
  9717  6065  6108    1
  9718  3169  6109    1
  9719  6066  6069   un
  9720  6066  6100    1
  9721  3171  6105    1
  9722  6067  6070   un
  9723  6067  6097    1
  9724  6067  6098    1
  9725  6068  6071   un
  9726  6068  6095    1
  9727  3175  6094    1
  9728  6069  6072   un
  9729  6070  6073   un
  9730  6070  6097    1
  9731  5141  6096    1
  9732  6072  6093    1
  9733  2848  6104    1
  9734  5771  6092    1
  9735  3507  6129   un
  9736  3507  6151   un
  9737  3507  6175   un
  9738  3507  6440   un
  9739  3507  6467    1
  9740  6111  6126   un
  9741  6111  6152   un
  9742  6111  6378    1
  9743  6111  6398   un
  9744  6111  6401   un
  9745  6111  6415   un
  9746  6111  6420   un
  9747  6111  6430   un
  9748  6111  6441   un
  9749  6111  6451    1
  9750  6111  6464    1
  9751  6111  6470    1
  9752  6112  6113   un
  9753  6112  6117   un
  9754  6112  6125   un
  9755  6112  6128   un
  9756  6112  6131   un
  9757  6112  6153   un
  9758  6112  6177   un
  9759  6112  6199   un
  9760  6112  6364    1
  9761  6112  6377    1
  9762  6112  6381    1
  9763  6112  6383    1
  9764  3512  6154   un
  9765  3512  6200   un
  9766  3512  6421   un
  9767  3512  6431   un
  9768  3512  6466    1
  9769  3513  6133   un
  9770  3513  6155   un
  9771  3513  6179   un
  9772  3513  6380    1
  9773  3515  6156   un
  9774  3515  6422   un
  9775  3515  6432   un
  9776  6113  6117   un
  9777  6113  6121   un
  9778  6113  6128   un
  9779  6113  6135   un
  9780  6113  6157   un
  9781  6113  6181   un
  9782  6113  6203   un
  9783  6113  6367    1
  9784  6113  6375    1
  9785  6113  6381    1
  9786  6113  6383    1
  9787  6114  6120   un
  9788  6114  6158   un
  9789  6114  6204   un
  9790  6114  6368    1
  9791  6114  6379    1
  9792  6114  6390   un
  9793  6114  6400   un
  9794  6114  6414   un
  9795  6114  6423   un
  9796  6114  6433   un
  9797  6114  6459    1
  9798  6114  6469    1
  9799  6115  6137   un
  9800  6115  6159   un
  9801  6115  6183   un
  9802  6115  6374    1
  9803  6115  6382    1
  9804  6115  6389   un
  9805  6115  6397   un
  9806  6115  6405   un
  9807  6115  6411   un
  9808  6115  6442   un
  9809  6115  6454    1
  9810  6115  6463    1
  9811  6116  6122   un
  9812  6116  6160   un
  9813  6116  6376    1
  9814  6116  6392   un
  9815  6116  6394   un
  9816  6116  6409   un
  9817  6116  6424   un
  9818  6116  6434   un
  9819  6116  6443   un
  9820  6116  6456    1
  9821  6116  6460    1
  9822  6116  6471    1
  9823  6117  6121   un
  9824  6117  6125   un
  9825  6117  6138   un
  9826  6117  6161   un
  9827  6117  6184   un
  9828  6117  6207   un
  9829  6117  6371    1
  9830  6117  6375    1
  9831  6117  6377    1
  9832  6117  6383    1
  9833  6118  6124   un
  9834  6118  6162   un
  9835  6118  6208   un
  9836  6118  6372    1
  9837  6118  6373    1
  9838  6118  6388   un
  9839  6118  6395   un
  9840  6118  6404   un
  9841  6118  6425   un
  9842  6118  6435   un
  9843  6118  6462    1
  9844  6118  6468    1
  9845  6119  6139   un
  9846  6119  6163   un
  9847  6119  6185   un
  9848  6119  6366    1
  9849  6119  6384    1
  9850  6119  6396   un
  9851  6119  6403   un
  9852  6119  6410   un
  9853  6119  6419   un
  9854  6119  6444   un
  9855  6119  6457    1
  9856  6119  6458    1
  9857  6120  6164   un
  9858  6120  6368    1
  9859  6120  6400   un
  9860  6120  6412   un
  9861  6120  6414   un
  9862  6120  6426   un
  9863  6120  6436   un
  9864  6120  6445   un
  9865  6120  6455    1
  9866  6120  6459    1
  9867  6120  6473    1
  9868  6121  6125   un
  9869  6121  6128   un
  9870  6121  6141   un
  9871  6121  6165   un
  9872  6121  6187   un
  9873  6121  6211   un
  9874  6121  6367    1
  9875  6121  6371    1
  9876  6121  6375    1
  9877  6121  6386    1
  9878  6122  6166   un
  9879  6122  6212   un
  9880  6122  6365    1
  9881  6122  6376    1
  9882  6122  6394   un
  9883  6122  6409   un
  9884  6122  6416   un
  9885  6122  6427   un
  9886  6122  6437   un
  9887  6122  6456    1
  9888  6122  6475    1
  9889  6123  6143   un
  9890  6123  6167   un
  9891  6123  6189   un
  9892  6123  6370    1
  9893  6123  6387    1
  9894  6123  6393   un
  9895  6123  6402   un
  9896  6123  6408   un
  9897  6123  6417   un
  9898  6123  6446   un
  9899  6123  6452    1
  9900  6123  6461    1
  9901  6124  6168   un
  9902  6124  6372    1
  9903  6124  6388   un
  9904  6124  6404   un
  9905  6124  6418   un
  9906  6124  6428   un
  9907  6124  6438   un
  9908  6124  6447   un
  9909  6124  6450    1
  9910  6124  6462    1
  9911  6124  6472    1
  9912  6125  6128   un
  9913  6125  6145   un
  9914  6125  6169   un
  9915  6125  6191   un
  9916  6125  6213   un
  9917  6125  6364    1
  9918  6125  6371    1
  9919  6125  6377    1
  9920  6125  6386    1
  9921  6126  6170   un
  9922  6126  6214   un
  9923  6126  6369    1
  9924  6126  6378    1
  9925  6126  6401   un
  9926  6126  6406   un
  9927  6126  6415   un
  9928  6126  6429   un
  9929  6126  6439   un
  9930  6126  6451    1
  9931  6126  6474    1
  9932  6127  6147   un
  9933  6127  6171   un
  9934  6127  6193   un
  9935  6127  6363    1
  9936  6127  6385    1
  9937  6127  6391   un
  9938  6127  6399   un
  9939  6127  6407   un
  9940  6127  6413   un
  9941  6127  6448   un
  9942  6127  6453    1
  9943  6127  6465    1
  9944  3536  6172   un
  9945  3536  6449   un
  9946  3536  6466    1
  9947  6128  6149   un
  9948  6128  6173   un
  9949  6128  6195   un
  9950  6128  6217   un
  9951  6128  6364    1
  9952  6128  6367    1
  9953  6128  6381    1
  9954  6128  6386    1
  9955  3538  6174   un
  9956  3538  6218   un
  9957  6129  6291   un
  9958  6130  6292   un
  9959  6130  6389   un
  9960  6131  6293   un
  9961  6132  6294   un
  9962  6132  3511   un
  9963  6133  6295   un
  9964  6134  6296   un
  9965  6134  3514   un
  9966  6135  6297   un
  9967  6136  6298   un
  9968  6136  6397   un
  9969  6137  6299   un
  9970  3543  6300   un
  9971  6138  6301   un
  9972  3544  6302   un
  9973  6139  6303   un
  9974  6140  6304   un
  9975  6140  6407   un
  9976  6141  6305   un
  9977  6142  6306   un
  9978  6142  6408   un
  9979  6143  6307   un
  9980  6144  6308   un
  9981  6144  6410   un
  9982  6145  6309   un
  9983  6146  6310   un
  9984  6146  6413   un
  9985  6147  6311   un
  9986  6148  6312   un
  9987  6148  6417   un
  9988  6149  6313   un
  9989  6150  6314   un
  9990  6150  6419   un
  9991  6151  6219   un
  9992  6152  6220   un
  9993  6153  6221   un
  9994  6154  6222   un
  9995  6155  6223   un
  9996  6156  6224   un
  9997  6157  6225   un
  9998  6158  6226   un
  9999  6159  6227   un
 10000  6160  6228   un
 10001  6161  6229   un
 10002  6162  6230   un
 10003  6163  6231   un
 10004  6164  6232   un
 10005  6165  6233   un
 10006  6166  6234   un
 10007  6167  6235   un
 10008  6168  6236   un
 10009  6169  6237   un
 10010  6170  6238   un
 10011  6171  6239   un
 10012  6172  6240   un
 10013  6173  6241   un
 10014  6174  6242   un
 10015  6175  6302   un
 10016  6176  6299   un
 10017  6176  6389   un
 10018  6177  6301   un
 10019  6178  6300   un
 10020  6178  3511   un
 10021  6179  6294   un
 10022  6180  6291   un
 10023  6180  3514   un
 10024  6181  6293   un
 10025  6182  6292   un
 10026  6182  6397   un
 10027  6183  6298   un
 10028  3553  6295   un
 10029  6184  6297   un
 10030  3554  6296   un
 10031  6185  6314   un
 10032  6186  6311   un
 10033  6186  6407   un
 10034  6187  6313   un
 10035  6188  6312   un
 10036  6188  6408   un
 10037  6189  6306   un
 10038  6190  6303   un
 10039  6190  6410   un
 10040  6191  6305   un
 10041  6192  6304   un
 10042  6192  6413   un
 10043  6193  6310   un
 10044  6194  6307   un
 10045  6194  6417   un
 10046  6195  6309   un
 10047  6196  6308   un
 10048  6196  6419   un
 10049  6197  6242   un
 10050  6197  3857   un
 10051  6198  6239   un
 10052  6198  6391   un
 10053  6199  6241   un
 10054  6200  6240   un
 10055  6201  6234   un
 10056  6201  6394   un
 10057  6202  6231   un
 10058  6202  6396   un
 10059  6203  6233   un
 10060  6204  6232   un
 10061  6205  6238   un
 10062  6205  6401   un
 10063  6206  6235   un
 10064  6206  6402   un
 10065  6207  6237   un
 10066  6208  6236   un
 10067  6209  6230   un
 10068  6209  6404   un
 10069  6210  6227   un
 10070  6210  6405   un
 10071  6211  6229   un
 10072  6212  6228   un
 10073  3565  6222   un
 10074  3566  6219   un
 10075  6213  6221   un
 10076  6214  6220   un
 10077  6215  6226   un
 10078  6215  6414   un
 10079  6216  6223   un
 10080  6216  3535   un
 10081  6217  6225   un
 10082  6218  6224   un
 10083  6219  6243   un
 10084  6220  6244   un
 10085  6221  6245   un
 10086  6222  6246   un
 10087  6223  6247   un
 10088  6224  6248   un
 10089  6225  6249   un
 10090  6226  6250   un
 10091  6227  6251   un
 10092  6228  6252   un
 10093  6229  6253   un
 10094  6230  6254   un
 10095  6231  6255   un
 10096  6232  6256   un
 10097  6233  6257   un
 10098  6234  6258   un
 10099  6235  6259   un
 10100  6236  6260   un
 10101  6237  6261   un
 10102  6238  6262   un
 10103  6239  6263   un
 10104  6240  6264   un
 10105  6241  6265   un
 10106  6242  6266   un
 10107  6243  6244   un
 10108  6243  6267    1
 10109  6244  6268    1
 10110  6245  6246   un
 10111  6245  6269    1
 10112  6246  6270    1
 10113  6247  6248   un
 10114  6247  6271    1
 10115  6248  6272    1
 10116  6249  6250   un
 10117  6249  6273    1
 10118  6250  6274    1
 10119  6251  6252   un
 10120  6251  6275    1
 10121  6252  6276    1
 10122  6253  6254   un
 10123  6253  6277    1
 10124  6254  6278    1
 10125  6255  6256   un
 10126  6255  6279    1
 10127  6256  6280    1
 10128  6257  6258   un
 10129  6257  6281    1
 10130  6258  6282    1
 10131  6259  6260   un
 10132  6259  6283    1
 10133  6260  6284    1
 10134  6261  6262   un
 10135  6261  6285    1
 10136  6262  6286    1
 10137  6263  6264   un
 10138  6263  6287    1
 10139  6264  6288    1
 10140  6265  6266   un
 10141  6265  6289    1
 10142  6266  6290    1
 10143  6291  6315   un
 10144  6292  6316   un
 10145  6293  6317   un
 10146  6294  6318   un
 10147  6295  6319   un
 10148  6296  6320   un
 10149  6297  6321   un
 10150  6298  6322   un
 10151  6299  6323   un
 10152  6300  6324   un
 10153  6301  6325   un
 10154  6302  6326   un
 10155  6303  6327   un
 10156  6304  6328   un
 10157  6305  6329   un
 10158  6306  6330   un
 10159  6307  6331   un
 10160  6308  6332   un
 10161  6309  6333   un
 10162  6310  6334   un
 10163  6311  6335   un
 10164  6312  6336   un
 10165  6313  6337   un
 10166  6314  6338   un
 10167  6315  6316   un
 10168  6315  6339    1
 10169  6316  6340    1
 10170  6317  6318   un
 10171  6317  6341    1
 10172  6318  6342    1
 10173  6319  6320   un
 10174  6319  6343    1
 10175  6320  6344    1
 10176  6321  6322   un
 10177  6321  6345    1
 10178  6322  6346    1
 10179  6323  6324   un
 10180  6323  6347    1
 10181  6324  6348    1
 10182  6325  6326   un
 10183  6325  6349    1
 10184  6326  6350    1
 10185  6327  6328   un
 10186  6327  6351    1
 10187  6328  6352    1
 10188  6329  6330   un
 10189  6329  6353    1
 10190  6330  6354    1
 10191  6331  6332   un
 10192  6331  6355    1
 10193  6332  6356    1
 10194  6333  6334   un
 10195  6333  6357    1
 10196  6334  6358    1
 10197  6335  6336   un
 10198  6335  6359    1
 10199  6336  6360    1
 10200  6337  6338   un
 10201  6337  6361    1
 10202  6338  6362    1
 10203  6363  6391    1
 10204  6363  6413    1
 10205  6365  6394    1
 10206  6365  6416    1
 10207  6366  6396    1
 10208  6366  6419    1
 10209  6368  6414    1
 10210  6369  6401    1
 10211  6369  6406    1
 10212  6370  6402    1
 10213  6370  6408    1
 10214  6372  6404    1
 10215  6373  6395    1
 10216  6373  6404    1
 10217  6374  6397    1
 10218  6374  6405    1
 10219  6376  6394    1
 10220  6378  6401    1
 10221  6379  6390    1
 10222  6379  6414    1
 10223  6380  3511    1
 10224  6380  3535    1
 10225  6382  6389    1
 10226  6382  6397    1
 10227  6384  6410    1
 10228  6384  6419    1
 10229  6385  6407    1
 10230  6385  6413    1
 10231  6387  6408    1
 10232  6387  6417    1
 10233  6388  6395   un
 10234  6388  6418   un
 10235  6388  6450    1
 10236  6388  6462    1
 10237  6388  6468    1
 10238  6389  6397   un
 10239  6389  6411   un
 10240  6389  6463    1
 10241  6390  6400   un
 10242  6390  6412   un
 10243  6390  6414   un
 10244  6390  6469    1
 10245  6391  6399   un
 10246  6391  6413   un
 10247  6391  6465    1
 10248  6392  6394   un
 10249  6392  6409   un
 10250  6392  6416   un
 10251  6392  6460    1
 10252  6392  6471    1
 10253  6393  6402   un
 10254  6393  6417   un
 10255  6393  6452    1
 10256  6393  6461    1
 10257  4521  6466    1
 10258  6394  6416   un
 10259  6394  6471    1
 10260  3514  6467    1
 10261  6395  6404   un
 10262  6395  6418   un
 10263  6395  6468    1
 10264  6396  6403   un
 10265  6396  6419   un
 10266  6396  6458    1
 10267  6397  6405   un
 10268  6398  6401   un
 10269  6398  6406   un
 10270  6398  6415   un
 10271  6398  6464    1
 10272  6398  6470    1
 10273  6399  6407   un
 10274  6399  6453    1
 10275  6399  6465    1
 10276  6400  6412   un
 10277  6400  6455    1
 10278  6400  6459    1
 10279  6400  6469    1
 10280  6401  6406   un
 10281  6401  6470    1
 10282  6402  6408   un
 10283  6402  6461    1
 10284  6403  6410   un
 10285  6403  6457    1
 10286  6403  6458    1
 10287  6404  6418   un
 10288  6404  6472    1
 10289  6405  6411   un
 10290  6405  6454    1
 10291  6406  6415   un
 10292  6406  6474    1
 10293  6407  6413   un
 10294  6407  6453    1
 10295  6408  6417   un
 10296  6409  6416   un
 10297  6409  6456    1
 10298  6409  6460    1
 10299  6409  6475    1
 10300  6410  6419   un
 10301  6410  6457    1
 10302  6411  6454    1
 10303  6411  6463    1
 10304  6412  6414   un
 10305  6412  6455    1
 10306  6412  6473    1
 10307  6414  6473    1
 10308  6415  6451    1
 10309  6415  6464    1
 10310  6415  6474    1
 10311  6416  6475    1
 10312  6417  6452    1
 10313  3537  6467    1
 10314  6418  6450    1
 10315  6418  6472    1
 10316  3857  6489   un
 10317  3857  6509   un
 10318  3857  6533   un
 10319  3857  6798    1
 10320  6391  6510   un
 10321  6391  6729    1
 10322  6391  6747   un
 10323  6391  6760   un
 10324  6391  6768   un
 10325  6391  6801    1
 10326  6476  6477   un
 10327  6476  6480   un
 10328  6476  6486   un
 10329  6476  6488   un
 10330  6476  6491   un
 10331  6476  6511   un
 10332  6476  6535   un
 10333  6476  6555   un
 10334  6476  6718    1
 10335  6476  6728    1
 10336  6476  6732    1
 10337  6476  6733    1
 10338  3861  6512   un
 10339  3861  6556   un
 10340  3861  6761   un
 10341  3861  6769   un
 10342  3861  6797    1
 10343  3862  6493   un
 10344  3862  6513   un
 10345  3862  6537   un
 10346  3862  6731    1
 10347  3863  6514   un
 10348  3863  6762   un
 10349  3863  6770   un
 10350  6477  6480   un
 10351  6477  6483   un
 10352  6477  6488   un
 10353  6477  6494   un
 10354  6477  6515   un
 10355  6477  6538   un
 10356  6477  6559   un
 10357  6477  6721    1
 10358  6477  6726    1
 10359  6477  6732    1
 10360  6477  6733    1
 10361  6478  6482   un
 10362  6478  6516   un
 10363  6478  6560   un
 10364  6478  6722    1
 10365  6478  6730    1
 10366  6478  6739   un
 10367  6478  6746   un
 10368  6478  6756   un
 10369  6478  6763   un
 10370  6478  6771   un
 10371  6478  6791    1
 10372  6478  6800    1
 10373  6400  6495   un
 10374  6400  6517   un
 10375  6400  6539   un
 10376  6400  6776   un
 10377  6400  6795    1
 10378  6479  6484   un
 10379  6479  6518   un
 10380  6479  6727    1
 10381  6479  6741   un
 10382  6479  6743   un
 10383  6479  6752   un
 10384  6479  6764   un
 10385  6479  6772   un
 10386  6479  6777   un
 10387  6479  6788    1
 10388  6479  6792    1
 10389  6479  6802    1
 10390  6480  6483   un
 10391  6480  6486   un
 10392  6480  6496   un
 10393  6480  6519   un
 10394  6480  6540   un
 10395  6480  6563   un
 10396  6480  6725    1
 10397  6480  6726    1
 10398  6480  6728    1
 10399  6480  6733    1
 10400  6403  6520   un
 10401  6403  6564   un
 10402  6403  6738   un
 10403  6403  6765   un
 10404  6403  6773   un
 10405  6403  6794    1
 10406  6403  6799    1
 10407  6481  6497   un
 10408  6481  6521   un
 10409  6481  6541   un
 10410  6481  6720    1
 10411  6481  6734    1
 10412  6481  6744   un
 10413  6481  6749   un
 10414  6481  6753   un
 10415  6481  6759   un
 10416  6481  6778   un
 10417  6481  6789    1
 10418  6481  6790    1
 10419  6482  6522   un
 10420  6482  6722    1
 10421  6482  6746   un
 10422  6482  6754   un
 10423  6482  6756   un
 10424  6482  6766   un
 10425  6482  6774   un
 10426  6482  6779   un
 10427  6482  6787    1
 10428  6482  6791    1
 10429  6482  6803    1
 10430  6483  6486   un
 10431  6483  6488   un
 10432  6483  6499   un
 10433  6483  6523   un
 10434  6483  6543   un
 10435  6483  6565   un
 10436  6483  6721    1
 10437  6483  6725    1
 10438  6483  6726    1
 10439  6483  6736    1
 10440  6484  6524   un
 10441  6484  6566   un
 10442  6484  6719    1
 10443  6484  6727    1
 10444  6484  6743   un
 10445  6484  6752   un
 10446  6484  6757   un
 10447  6484  6767   un
 10448  6484  6775   un
 10449  6484  6788    1
 10450  6484  6804    1
 10451  6485  6501   un
 10452  6485  6525   un
 10453  6485  6545   un
 10454  6485  6724    1
 10455  6485  6737    1
 10456  6485  6742   un
 10457  6485  6748   un
 10458  6485  6751   un
 10459  6485  6758   un
 10460  6485  6780   un
 10461  6485  6785    1
 10462  6485  6793    1
 10463  6410  6526   un
 10464  6410  6738   un
 10465  6410  6781   un
 10466  6410  6784    1
 10467  6410  6794    1
 10468  6486  6488   un
 10469  6486  6503   un
 10470  6486  6527   un
 10471  6486  6547   un
 10472  6486  6567   un
 10473  6486  6718    1
 10474  6486  6725    1
 10475  6486  6728    1
 10476  6486  6736    1
 10477  6413  6528   un
 10478  6413  6568   un
 10479  6413  6723    1
 10480  6413  6729    1
 10481  6413  6747   un
 10482  6487  6505   un
 10483  6487  6529   un
 10484  6487  6549   un
 10485  6487  6717    1
 10486  6487  6735    1
 10487  6487  6740   un
 10488  6487  6745   un
 10489  6487  6750   un
 10490  6487  6755   un
 10491  6487  6782   un
 10492  6487  6786    1
 10493  6487  6796    1
 10494  3877  6530   un
 10495  3877  6783   un
 10496  3877  6797    1
 10497  6488  6507   un
 10498  6488  6531   un
 10499  6488  6551   un
 10500  6488  6571   un
 10501  6488  6718    1
 10502  6488  6721    1
 10503  6488  6732    1
 10504  6488  6736    1
 10505  3878  6532   un
 10506  3878  6572   un
 10507  6489  6645   un
 10508  6490  6646   un
 10509  6490  6390   un
 10510  6491  6647   un
 10511  6492  6648   un
 10512  6492  3860   un
 10513  6493  6649   un
 10514  6422  6650   un
 10515  6494  6651   un
 10516  6423  6652   un
 10517  6495  6653   un
 10518  3883  6654   un
 10519  6496  6655   un
 10520  3884  6656   un
 10521  6497  6657   un
 10522  6498  6658   un
 10523  6498  6750   un
 10524  6499  6659   un
 10525  6500  6660   un
 10526  6500  6751   un
 10527  6501  6661   un
 10528  6502  6662   un
 10529  6502  6753   un
 10530  6503  6663   un
 10531  6504  6664   un
 10532  6504  6755   un
 10533  6505  6665   un
 10534  6506  6666   un
 10535  6506  6758   un
 10536  6507  6667   un
 10537  6508  6668   un
 10538  6508  6759   un
 10539  6509  6573   un
 10540  6510  6574   un
 10541  6511  6575   un
 10542  6512  6576   un
 10543  6513  6577   un
 10544  6514  6578   un
 10545  6515  6579   un
 10546  6516  6580   un
 10547  6517  6581   un
 10548  6518  6582   un
 10549  6519  6583   un
 10550  6520  6584   un
 10551  6521  6585   un
 10552  6522  6586   un
 10553  6523  6587   un
 10554  6524  6588   un
 10555  6525  6589   un
 10556  6526  6590   un
 10557  6527  6591   un
 10558  6528  6592   un
 10559  6529  6593   un
 10560  6530  6594   un
 10561  6531  6595   un
 10562  6532  6596   un
 10563  6533  6656   un
 10564  6534  6653   un
 10565  6534  6390   un
 10566  6535  6655   un
 10567  6536  6654   un
 10568  6536  3860   un
 10569  6537  6648   un
 10570  6432  6645   un
 10571  6538  6647   un
 10572  6433  6646   un
 10573  6539  6652   un
 10574  3891  6649   un
 10575  6540  6651   un
 10576  3892  6650   un
 10577  6541  6668   un
 10578  6542  6665   un
 10579  6542  6750   un
 10580  6543  6667   un
 10581  6544  6666   un
 10582  6544  6751   un
 10583  6545  6660   un
 10584  6546  6657   un
 10585  6546  6753   un
 10586  6547  6659   un
 10587  6548  6658   un
 10588  6548  6755   un
 10589  6549  6664   un
 10590  6550  6661   un
 10591  6550  6758   un
 10592  6551  6663   un
 10593  6552  6662   un
 10594  6552  6759   un
 10595  6553  6596   un
 10596  6553  4188   un
 10597  6554  6593   un
 10598  6554  6740   un
 10599  6555  6595   un
 10600  6556  6594   un
 10601  6557  6588   un
 10602  6557  6743   un
 10603  6558  6585   un
 10604  6558  6744   un
 10605  6559  6587   un
 10606  6560  6586   un
 10607  6561  6592   un
 10608  6561  6747   un
 10609  6562  6589   un
 10610  6562  6748   un
 10611  6563  6591   un
 10612  6564  6590   un
 10613  6444  6584   un
 10614  6445  6581   un
 10615  6565  6583   un
 10616  6566  6582   un
 10617  3899  6576   un
 10618  3900  6573   un
 10619  6567  6575   un
 10620  6568  6574   un
 10621  6569  6580   un
 10622  6569  6756   un
 10623  6570  6577   un
 10624  6570  3876   un
 10625  6571  6579   un
 10626  6572  6578   un
 10627  6573  6597   un
 10628  6574  6598   un
 10629  6575  6599   un
 10630  6576  6600   un
 10631  6577  6601   un
 10632  6578  6602   un
 10633  6579  6603   un
 10634  6580  6604   un
 10635  6581  6605   un
 10636  6582  6606   un
 10637  6583  6607   un
 10638  6584  6608   un
 10639  6585  6609   un
 10640  6586  6610   un
 10641  6587  6611   un
 10642  6588  6612   un
 10643  6589  6613   un
 10644  6590  6614   un
 10645  6591  6615   un
 10646  6592  6616   un
 10647  6593  6617   un
 10648  6594  6618   un
 10649  6595  6619   un
 10650  6596  6620   un
 10651  6597  6598   un
 10652  6597  6621    1
 10653  6598  6622    1
 10654  6599  6600   un
 10655  6599  6623    1
 10656  6600  6624    1
 10657  6601  6602   un
 10658  6601  6625    1
 10659  6602  6626    1
 10660  6603  6604   un
 10661  6603  6627    1
 10662  6604  6628    1
 10663  6605  6606   un
 10664  6605  6629    1
 10665  6606  6630    1
 10666  6607  6608   un
 10667  6607  6631    1
 10668  6608  6632    1
 10669  6609  6610   un
 10670  6609  6633    1
 10671  6610  6634    1
 10672  6611  6612   un
 10673  6611  6635    1
 10674  6612  6636    1
 10675  6613  6614   un
 10676  6613  6637    1
 10677  6614  6638    1
 10678  6615  6616   un
 10679  6615  6639    1
 10680  6616  6640    1
 10681  6617  6618   un
 10682  6617  6641    1
 10683  6618  6642    1
 10684  6619  6620   un
 10685  6619  6643    1
 10686  6620  6644    1
 10687  6645  6669   un
 10688  6646  6670   un
 10689  6647  6671   un
 10690  6648  6672   un
 10691  6649  6673   un
 10692  6650  6674   un
 10693  6651  6675   un
 10694  6652  6676   un
 10695  6653  6677   un
 10696  6654  6678   un
 10697  6655  6679   un
 10698  6656  6680   un
 10699  6657  6681   un
 10700  6658  6682   un
 10701  6659  6683   un
 10702  6660  6684   un
 10703  6661  6685   un
 10704  6662  6686   un
 10705  6663  6687   un
 10706  6664  6688   un
 10707  6665  6689   un
 10708  6666  6690   un
 10709  6667  6691   un
 10710  6668  6692   un
 10711  6669  6670   un
 10712  6669  6693    1
 10713  6670  6694    1
 10714  6671  6672   un
 10715  6671  6695    1
 10716  6672  6696    1
 10717  6673  6674   un
 10718  6673  6697    1
 10719  6674  6698    1
 10720  6675  6676   un
 10721  6675  6699    1
 10722  6676  6700    1
 10723  6677  6678   un
 10724  6677  6701    1
 10725  6678  6702    1
 10726  6679  6680   un
 10727  6679  6703    1
 10728  6680  6704    1
 10729  6681  6682   un
 10730  6681  6705    1
 10731  6682  6706    1
 10732  6683  6684   un
 10733  6683  6707    1
 10734  6684  6708    1
 10735  6685  6686   un
 10736  6685  6709    1
 10737  6686  6710    1
 10738  6687  6688   un
 10739  6687  6711    1
 10740  6688  6712    1
 10741  6689  6690   un
 10742  6689  6713    1
 10743  6690  6714    1
 10744  6691  6692   un
 10745  6691  6715    1
 10746  6692  6716    1
 10747  6717  6740    1
 10748  6717  6755    1
 10749  6719  6743    1
 10750  6719  6757    1
 10751  6720  6744    1
 10752  6720  6759    1
 10753  6722  6756    1
 10754  6723  6747    1
 10755  6723  6407    1
 10756  6724  6748    1
 10757  6724  6751    1
 10758  6727  6743    1
 10759  6729  6747    1
 10760  6730  6739    1
 10761  6730  6756    1
 10762  6731  3860    1
 10763  6731  3876    1
 10764  6734  6753    1
 10765  6734  6759    1
 10766  6735  6750    1
 10767  6735  6755    1
 10768  6737  6751    1
 10769  6737  6758    1
 10770  6738  6396   un
 10771  6738  6419   un
 10772  6738  6784    1
 10773  6738  6794    1
 10774  6738  6799    1
 10775  6390  6795    1
 10776  6739  6746   un
 10777  6739  6754   un
 10778  6739  6756   un
 10779  6739  6800    1
 10780  6740  6745   un
 10781  6740  6755   un
 10782  6740  6796    1
 10783  6741  6743   un
 10784  6741  6752   un
 10785  6741  6757   un
 10786  6741  6792    1
 10787  6741  6802    1
 10788  6742  6748   un
 10789  6742  6758   un
 10790  6742  6785    1
 10791  6742  6793    1
 10792  4833  6797    1
 10793  6743  6757   un
 10794  6743  6802    1
 10795  3515  6798    1
 10796  6396  6799    1
 10797  6744  6749   un
 10798  6744  6759   un
 10799  6744  6790    1
 10800  6399  6747   un
 10801  6399  6801    1
 10802  6745  6750   un
 10803  6745  6786    1
 10804  6745  6796    1
 10805  6746  6754   un
 10806  6746  6787    1
 10807  6746  6791    1
 10808  6746  6800    1
 10809  6747  6407   un
 10810  6747  6801    1
 10811  6748  6751   un
 10812  6748  6793    1
 10813  6749  6753   un
 10814  6749  6789    1
 10815  6749  6790    1
 10816  6750  6755   un
 10817  6750  6786    1
 10818  6751  6758   un
 10819  6752  6757   un
 10820  6752  6788    1
 10821  6752  6792    1
 10822  6752  6804    1
 10823  6753  6759   un
 10824  6753  6789    1
 10825  6412  6795    1
 10826  6754  6756   un
 10827  6754  6787    1
 10828  6754  6803    1
 10829  6756  6803    1
 10830  6757  6804    1
 10831  6758  6785    1
 10832  3538  6798    1
 10833  6419  6784    1
 10834  4188  6818   un
 10835  4188  6838   un
 10836  4188  6862   un
 10837  4188  7129    1
 10838  6740  6839   un
 10839  6740  7059    1
 10840  6740  7078   un
 10841  6740  7091   un
 10842  6740  7099   un
 10843  6740  7133    1
 10844  6805  6806   un
 10845  6805  6809   un
 10846  6805  6815   un
 10847  6805  6817   un
 10848  6805  6820   un
 10849  6805  6840   un
 10850  6805  6864   un
 10851  6805  6884   un
 10852  6805  7048    1
 10853  6805  7058    1
 10854  6805  7062    1
 10855  6805  7063    1
 10856  4192  6841   un
 10857  4192  6885   un
 10858  4192  7092   un
 10859  4192  7100   un
 10860  4192  7128    1
 10861  4193  6822   un
 10862  4193  6842   un
 10863  4193  6866   un
 10864  4193  7061    1
 10865  4194  6843   un
 10866  4194  7068   un
 10867  4194  7093   un
 10868  4194  7101   un
 10869  4194  7130    1
 10870  6806  6809   un
 10871  6806  6812   un
 10872  6806  6817   un
 10873  6806  6823   un
 10874  6806  6844   un
 10875  6806  6867   un
 10876  6806  6888   un
 10877  6806  7051    1
 10878  6806  7056    1
 10879  6806  7062    1
 10880  6806  7063    1
 10881  6807  6811   un
 10882  6807  6845   un
 10883  6807  6889   un
 10884  6807  7052    1
 10885  6807  7060    1
 10886  6807  7070   un
 10887  6807  7077   un
 10888  6807  7087   un
 10889  6807  7094   un
 10890  6807  7102   un
 10891  6807  7122    1
 10892  6807  7132    1
 10893  6746  6824   un
 10894  6746  6846   un
 10895  6746  6868   un
 10896  6746  7107   un
 10897  6746  7126    1
 10898  6808  6813   un
 10899  6808  6847   un
 10900  6808  7057    1
 10901  6808  7072   un
 10902  6808  7074   un
 10903  6808  7083   un
 10904  6808  7095   un
 10905  6808  7103   un
 10906  6808  7108   un
 10907  6808  7119    1
 10908  6808  7123    1
 10909  6808  7134    1
 10910  6809  6812   un
 10911  6809  6815   un
 10912  6809  6825   un
 10913  6809  6848   un
 10914  6809  6869   un
 10915  6809  6892   un
 10916  6809  7055    1
 10917  6809  7056    1
 10918  6809  7058    1
 10919  6809  7063    1
 10920  6749  6849   un
 10921  6749  6893   un
 10922  6749  7069   un
 10923  6749  7096   un
 10924  6749  7104   un
 10925  6749  7125    1
 10926  6749  7131    1
 10927  6810  6826   un
 10928  6810  6850   un
 10929  6810  6870   un
 10930  6810  7050    1
 10931  6810  7064    1
 10932  6810  7075   un
 10933  6810  7080   un
 10934  6810  7084   un
 10935  6810  7090   un
 10936  6810  7109   un
 10937  6810  7120    1
 10938  6810  7121    1
 10939  6811  6851   un
 10940  6811  7052    1
 10941  6811  7077   un
 10942  6811  7085   un
 10943  6811  7087   un
 10944  6811  7097   un
 10945  6811  7105   un
 10946  6811  7110   un
 10947  6811  7118    1
 10948  6811  7122    1
 10949  6811  7135    1
 10950  6812  6815   un
 10951  6812  6817   un
 10952  6812  6828   un
 10953  6812  6852   un
 10954  6812  6872   un
 10955  6812  6894   un
 10956  6812  7051    1
 10957  6812  7055    1
 10958  6812  7056    1
 10959  6812  7066    1
 10960  6813  6853   un
 10961  6813  6895   un
 10962  6813  7049    1
 10963  6813  7057    1
 10964  6813  7074   un
 10965  6813  7083   un
 10966  6813  7088   un
 10967  6813  7098   un
 10968  6813  7106   un
 10969  6813  7119    1
 10970  6813  7136    1
 10971  6814  6830   un
 10972  6814  6854   un
 10973  6814  6874   un
 10974  6814  7054    1
 10975  6814  7067    1
 10976  6814  7073   un
 10977  6814  7079   un
 10978  6814  7082   un
 10979  6814  7089   un
 10980  6814  7111   un
 10981  6814  7116    1
 10982  6814  7124    1
 10983  6753  6855   un
 10984  6753  7069   un
 10985  6753  7112   un
 10986  6753  7115    1
 10987  6753  7125    1
 10988  6815  6817   un
 10989  6815  6832   un
 10990  6815  6856   un
 10991  6815  6876   un
 10992  6815  6896   un
 10993  6815  7048    1
 10994  6815  7055    1
 10995  6815  7058    1
 10996  6815  7066    1
 10997  6755  6857   un
 10998  6755  6897   un
 10999  6755  7053    1
 11000  6755  7059    1
 11001  6755  7078   un
 11002  6816  6834   un
 11003  6816  6858   un
 11004  6816  6878   un
 11005  6816  7047    1
 11006  6816  7065    1
 11007  6816  7071   un
 11008  6816  7076   un
 11009  6816  7081   un
 11010  6816  7086   un
 11011  6816  7113   un
 11012  6816  7117    1
 11013  6816  7127    1
 11014  4208  6859   un
 11015  4208  7114   un
 11016  4208  7128    1
 11017  6817  6836   un
 11018  6817  6860   un
 11019  6817  6880   un
 11020  6817  6900   un
 11021  6817  7048    1
 11022  6817  7051    1
 11023  6817  7062    1
 11024  6817  7066    1
 11025  4209  6861   un
 11026  4209  6901   un
 11027  4209  7046    1
 11028  4209  7068   un
 11029  6818  6974   un
 11030  6819  6975   un
 11031  6819  6739   un
 11032  6820  6976   un
 11033  6821  6977   un
 11034  6821  4191   un
 11035  6822  6978   un
 11036  6762  6979   un
 11037  6823  6980   un
 11038  6763  6981   un
 11039  6824  6982   un
 11040  4214  6983   un
 11041  6825  6984   un
 11042  4215  6985   un
 11043  6826  6986   un
 11044  6827  6987   un
 11045  6827  7081   un
 11046  6828  6988   un
 11047  6829  6989   un
 11048  6829  7082   un
 11049  6830  6990   un
 11050  6831  6991   un
 11051  6831  7084   un
 11052  6832  6992   un
 11053  6833  6993   un
 11054  6833  7086   un
 11055  6834  6994   un
 11056  6835  6995   un
 11057  6835  7089   un
 11058  6836  6996   un
 11059  6837  6997   un
 11060  6837  7090   un
 11061  6838  6902   un
 11062  6839  6903   un
 11063  6840  6904   un
 11064  6841  6905   un
 11065  6842  6906   un
 11066  6843  6907   un
 11067  6844  6908   un
 11068  6845  6909   un
 11069  6846  6910   un
 11070  6847  6911   un
 11071  6848  6912   un
 11072  6849  6913   un
 11073  6850  6914   un
 11074  6851  6915   un
 11075  6852  6916   un
 11076  6853  6917   un
 11077  6854  6918   un
 11078  6855  6919   un
 11079  6856  6920   un
 11080  6857  6921   un
 11081  6858  6922   un
 11082  6859  6923   un
 11083  6860  6924   un
 11084  6861  6925   un
 11085  6862  6985   un
 11086  6863  6982   un
 11087  6863  6739   un
 11088  6864  6984   un
 11089  6865  6983   un
 11090  6865  4191   un
 11091  6866  6977   un
 11092  6770  6974   un
 11093  6867  6976   un
 11094  6771  6975   un
 11095  6868  6981   un
 11096  4222  6978   un
 11097  6869  6980   un
 11098  4223  6979   un
 11099  6870  6997   un
 11100  6871  6994   un
 11101  6871  7081   un
 11102  6872  6996   un
 11103  6873  6995   un
 11104  6873  7082   un
 11105  6874  6989   un
 11106  6875  6986   un
 11107  6875  7084   un
 11108  6876  6988   un
 11109  6877  6987   un
 11110  6877  7086   un
 11111  6878  6993   un
 11112  6879  6990   un
 11113  6879  7089   un
 11114  6880  6992   un
 11115  6881  6991   un
 11116  6881  7090   un
 11117  6882  6925   un
 11118  6882  7068   un
 11119  6883  6922   un
 11120  6883  7071   un
 11121  6884  6924   un
 11122  6885  6923   un
 11123  6886  6917   un
 11124  6886  7074   un
 11125  6887  6914   un
 11126  6887  7075   un
 11127  6888  6916   un
 11128  6889  6915   un
 11129  6890  6921   un
 11130  6890  7078   un
 11131  6891  6918   un
 11132  6891  7079   un
 11133  6892  6920   un
 11134  6893  6919   un
 11135  6778  6913   un
 11136  6779  6910   un
 11137  6894  6912   un
 11138  6895  6911   un
 11139  4230  6905   un
 11140  4231  6902   un
 11141  6896  6904   un
 11142  6897  6903   un
 11143  6898  6909   un
 11144  6898  7087   un
 11145  6899  6906   un
 11146  6899  4207   un
 11147  6900  6908   un
 11148  6901  6907   un
 11149  6902  6926   un
 11150  6903  6927   un
 11151  6904  6928   un
 11152  6905  6929   un
 11153  6906  6930   un
 11154  6907  6931   un
 11155  6908  6932   un
 11156  6909  6933   un
 11157  6910  6934   un
 11158  6911  6935   un
 11159  6912  6936   un
 11160  6913  6937   un
 11161  6914  6938   un
 11162  6915  6939   un
 11163  6916  6940   un
 11164  6917  6941   un
 11165  6918  6942   un
 11166  6919  6943   un
 11167  6920  6944   un
 11168  6921  6945   un
 11169  6922  6946   un
 11170  6923  6947   un
 11171  6924  6948   un
 11172  6925  6949   un
 11173  6926  6927   un
 11174  6926  6950    1
 11175  6927  6951    1
 11176  6928  6929   un
 11177  6928  6952    1
 11178  6929  6953    1
 11179  6930  6931   un
 11180  6930  6954    1
 11181  6931  6955    1
 11182  6932  6933   un
 11183  6932  6956    1
 11184  6933  6957    1
 11185  6934  6935   un
 11186  6934  6958    1
 11187  6935  6959    1
 11188  6936  6937   un
 11189  6936  6960    1
 11190  6937  6961    1
 11191  6938  6939   un
 11192  6938  6962    1
 11193  6939  6963    1
 11194  6940  6941   un
 11195  6940  6964    1
 11196  6941  6965    1
 11197  6942  6943   un
 11198  6942  6966    1
 11199  6943  6967    1
 11200  6944  6945   un
 11201  6944  6968    1
 11202  6945  6969    1
 11203  6946  6947   un
 11204  6946  6970    1
 11205  6947  6971    1
 11206  6948  6949   un
 11207  6948  6972    1
 11208  6949  6973    1
 11209  6974  6998   un
 11210  6975  6999   un
 11211  6976  7000   un
 11212  6977  7001   un
 11213  6978  7002   un
 11214  6979  7003   un
 11215  6980  7004   un
 11216  6981  7005   un
 11217  6982  7006   un
 11218  6983  7007   un
 11219  6984  7008   un
 11220  6985  7009   un
 11221  6986  7010   un
 11222  6987  7011   un
 11223  6988  7012   un
 11224  6989  7013   un
 11225  6990  7014   un
 11226  6991  7015   un
 11227  6992  7016   un
 11228  6993  7017   un
 11229  6994  7018   un
 11230  6995  7019   un
 11231  6996  7020   un
 11232  6997  7021   un
 11233  6998  6999   un
 11234  6998  7022    1
 11235  6999  7023    1
 11236  7000  7001   un
 11237  7000  7024    1
 11238  7001  7025    1
 11239  7002  7003   un
 11240  7002  7026    1
 11241  7003  7027    1
 11242  7004  7005   un
 11243  7004  7028    1
 11244  7005  7029    1
 11245  7006  7007   un
 11246  7006  7030    1
 11247  7007  7031    1
 11248  7008  7009   un
 11249  7008  7032    1
 11250  7009  7033    1
 11251  7010  7011   un
 11252  7010  7034    1
 11253  7011  7035    1
 11254  7012  7013   un
 11255  7012  7036    1
 11256  7013  7037    1
 11257  7014  7015   un
 11258  7014  7038    1
 11259  7015  7039    1
 11260  7016  7017   un
 11261  7016  7040    1
 11262  7017  7041    1
 11263  7018  7019   un
 11264  7018  7042    1
 11265  7019  7043    1
 11266  7020  7021   un
 11267  7020  7044    1
 11268  7021  7045    1
 11269  7046  7068    1
 11270  7046  4203    1
 11271  7047  7071    1
 11272  7047  7086    1
 11273  7049  7074    1
 11274  7049  7088    1
 11275  7050  7075    1
 11276  7050  7090    1
 11277  7052  7087    1
 11278  7053  7078    1
 11279  7053  6750    1
 11280  7054  7079    1
 11281  7054  7082    1
 11282  7057  7074    1
 11283  7059  7078    1
 11284  7060  7070    1
 11285  7060  7087    1
 11286  7061  4191    1
 11287  7061  4207    1
 11288  7064  7084    1
 11289  7064  7090    1
 11290  7065  7081    1
 11291  7065  7086    1
 11292  7067  7082    1
 11293  7067  7089    1
 11294  7068  4199   un
 11295  7068  4203   un
 11296  7068  7130    1
 11297  7069  6744   un
 11298  7069  6759   un
 11299  7069  7115    1
 11300  7069  7125    1
 11301  7069  7131    1
 11302  6739  7126    1
 11303  7070  7077   un
 11304  7070  7085   un
 11305  7070  7087   un
 11306  7070  7132    1
 11307  7071  7076   un
 11308  7071  7086   un
 11309  7071  7127    1
 11310  7072  7074   un
 11311  7072  7083   un
 11312  7072  7088   un
 11313  7072  7123    1
 11314  7072  7134    1
 11315  7073  7079   un
 11316  7073  7089   un
 11317  7073  7116    1
 11318  7073  7124    1
 11319  5131  7128    1
 11320  7074  7088   un
 11321  7074  7134    1
 11322  3863  7129    1
 11323  6744  7131    1
 11324  7075  7080   un
 11325  7075  7090   un
 11326  7075  7121    1
 11327  6745  7078   un
 11328  6745  7133    1
 11329  7076  7081   un
 11330  7076  7117    1
 11331  7076  7127    1
 11332  7077  7085   un
 11333  7077  7118    1
 11334  7077  7122    1
 11335  7077  7132    1
 11336  7078  6750   un
 11337  7078  7133    1
 11338  7079  7082   un
 11339  7079  7124    1
 11340  4199  7130    1
 11341  7080  7084   un
 11342  7080  7120    1
 11343  7080  7121    1
 11344  7081  7086   un
 11345  7081  7117    1
 11346  7082  7089   un
 11347  7083  7088   un
 11348  7083  7119    1
 11349  7083  7123    1
 11350  7083  7136    1
 11351  7084  7090   un
 11352  7084  7120    1
 11353  6754  7126    1
 11354  7085  7087   un
 11355  7085  7118    1
 11356  7085  7135    1
 11357  7087  7135    1
 11358  7088  7136    1
 11359  7089  7116    1
 11360  3878  7129    1
 11361  6759  7115    1
 11362  4518  7150   un
 11363  4518  7170   un
 11364  4518  7194   un
 11365  4518  7436   un
 11366  4518  7456    1
 11367  7137  7147   un
 11368  7137  7171   un
 11369  7137  7392    1
 11370  7137  7405   un
 11371  7137  7407   un
 11372  7137  7416   un
 11373  7137  7420   un
 11374  7137  7428   un
 11375  7137  7437   un
 11376  7137  7445    1
 11377  7137  7453    1
 11378  7137  7458    1
 11379  7138  7139   un
 11380  7138  7140   un
 11381  7138  7146   un
 11382  7138  7149   un
 11383  7138  7151   un
 11384  7138  7172   un
 11385  7138  7195   un
 11386  7138  7216   un
 11387  7138  7379    1
 11388  7138  7391    1
 11389  7138  7393    1
 11390  7138  7394    1
 11391  4520  7173   un
 11392  4520  7217   un
 11393  4520  7421   un
 11394  4520  7429   un
 11395  4520  7455    1
 11396  4521  7152   un
 11397  4521  7174   un
 11398  4521  7196   un
 11399  4523  7175   un
 11400  4523  7422   un
 11401  4523  7430   un
 11402  7139  7140   un
 11403  7139  7143   un
 11404  7139  7149   un
 11405  7139  7154   un
 11406  7139  7176   un
 11407  7139  7198   un
 11408  7139  7220   un
 11409  7139  7382    1
 11410  7139  7389    1
 11411  7139  7393    1
 11412  7139  7394    1
 11413  6399  7177   un
 11414  6399  7221   un
 11415  6399  7423   un
 11416  6399  7431   un
 11417  6399  7450    1
 11418  6401  7156   un
 11419  6401  7178   un
 11420  6401  7200   un
 11421  6401  7388    1
 11422  6402  7179   un
 11423  6402  7390    1
 11424  6402  7402   un
 11425  6402  7424   un
 11426  6402  7432   un
 11427  6402  7459    1
 11428  7140  7143   un
 11429  7140  7146   un
 11430  7140  7157   un
 11431  7140  7180   un
 11432  7140  7201   un
 11433  7140  7224   un
 11434  7140  7385    1
 11435  7140  7389    1
 11436  7140  7391    1
 11437  7140  7394    1
 11438  7141  7145   un
 11439  7141  7181   un
 11440  7141  7225   un
 11441  7141  7386    1
 11442  7141  7387    1
 11443  7141  7399   un
 11444  7141  7403   un
 11445  7141  7410   un
 11446  7141  7425   un
 11447  7141  7433   un
 11448  7141  7452    1
 11449  7141  7457    1
 11450  7142  7158   un
 11451  7142  7182   un
 11452  7142  7202   un
 11453  7142  7381    1
 11454  7142  7395    1
 11455  7142  7404   un
 11456  7142  7409   un
 11457  7142  7414   un
 11458  7142  7419   un
 11459  7142  7438   un
 11460  7142  7448    1
 11461  7142  7449    1
 11462  6407  7183   un
 11463  6407  7439   un
 11464  6407  7450    1
 11465  7143  7146   un
 11466  7143  7149   un
 11467  7143  7160   un
 11468  7143  7184   un
 11469  7143  7204   un
 11470  7143  7228   un
 11471  7143  7382    1
 11472  7143  7385    1
 11473  7143  7389    1
 11474  7143  7397    1
 11475  6408  7185   un
 11476  6408  7229   un
 11477  6408  7380    1
 11478  6408  7390    1
 11479  6408  7402   un
 11480  7144  7162   un
 11481  7144  7186   un
 11482  7144  7206   un
 11483  7144  7384    1
 11484  7144  7398    1
 11485  7144  7401   un
 11486  7144  7408   un
 11487  7144  7413   un
 11488  7144  7417   un
 11489  7144  7440   un
 11490  7144  7446    1
 11491  7144  7451    1
 11492  7145  7187   un
 11493  7145  7386    1
 11494  7145  7399   un
 11495  7145  7410   un
 11496  7145  7418   un
 11497  7145  7426   un
 11498  7145  7434   un
 11499  7145  7441   un
 11500  7145  7444    1
 11501  7145  7452    1
 11502  7145  7460    1
 11503  7146  7149   un
 11504  7146  7164   un
 11505  7146  7188   un
 11506  7146  7208   un
 11507  7146  7230   un
 11508  7146  7379    1
 11509  7146  7385    1
 11510  7146  7391    1
 11511  7146  7397    1
 11512  7147  7189   un
 11513  7147  7231   un
 11514  7147  7383    1
 11515  7147  7392    1
 11516  7147  7407   un
 11517  7147  7411   un
 11518  7147  7416   un
 11519  7147  7427   un
 11520  7147  7435   un
 11521  7147  7445    1
 11522  7147  7461    1
 11523  7148  7166   un
 11524  7148  7190   un
 11525  7148  7210   un
 11526  7148  7378    1
 11527  7148  7396    1
 11528  7148  7400   un
 11529  7148  7406   un
 11530  7148  7412   un
 11531  7148  7415   un
 11532  7148  7442   un
 11533  7148  7447    1
 11534  7148  7454    1
 11535  4536  7191   un
 11536  4536  7443   un
 11537  4536  7455    1
 11538  7149  7168   un
 11539  7149  7192   un
 11540  7149  7212   un
 11541  7149  7232   un
 11542  7149  7379    1
 11543  7149  7382    1
 11544  7149  7393    1
 11545  7149  7397    1
 11546  4538  7193   un
 11547  4538  7233   un
 11548  7150  7306   un
 11549  6420  7307   un
 11550  7151  7308   un
 11551  6421  7309   un
 11552  7152  7310   un
 11553  7153  7311   un
 11554  7153  4522   un
 11555  7154  7312   un
 11556  7155  7313   un
 11557  7155  6398   un
 11558  7156  7314   un
 11559  4543  7315   un
 11560  7157  7316   un
 11561  4544  7317   un
 11562  7158  7318   un
 11563  7159  7319   un
 11564  7159  7412   un
 11565  7160  7320   un
 11566  7161  7321   un
 11567  7161  7413   un
 11568  7162  7322   un
 11569  7163  7323   un
 11570  7163  7414   un
 11571  7164  7324   un
 11572  7165  7325   un
 11573  7165  7415   un
 11574  7166  7326   un
 11575  7167  7327   un
 11576  7167  7417   un
 11577  7168  7328   un
 11578  7169  7329   un
 11579  7169  7419   un
 11580  7170  7234   un
 11581  7171  7235   un
 11582  7172  7236   un
 11583  7173  7237   un
 11584  7174  7238   un
 11585  7175  7239   un
 11586  7176  7240   un
 11587  7177  7241   un
 11588  7178  7242   un
 11589  7179  7243   un
 11590  7180  7244   un
 11591  7181  7245   un
 11592  7182  7246   un
 11593  7183  7247   un
 11594  7184  7248   un
 11595  7185  7249   un
 11596  7186  7250   un
 11597  7187  7251   un
 11598  7188  7252   un
 11599  7189  7253   un
 11600  7190  7254   un
 11601  7191  7255   un
 11602  7192  7256   un
 11603  7193  7257   un
 11604  7194  7317   un
 11605  6430  7314   un
 11606  7195  7316   un
 11607  6431  7315   un
 11608  7196  7309   un
 11609  7197  7306   un
 11610  7197  4522   un
 11611  7198  7308   un
 11612  7199  7307   un
 11613  7199  6398   un
 11614  7200  7313   un
 11615  4551  7310   un
 11616  7201  7312   un
 11617  4552  7311   un
 11618  7202  7329   un
 11619  7203  7326   un
 11620  7203  7412   un
 11621  7204  7328   un
 11622  7205  7327   un
 11623  7205  7413   un
 11624  7206  7321   un
 11625  7207  7318   un
 11626  7207  7414   un
 11627  7208  7320   un
 11628  7209  7319   un
 11629  7209  7415   un
 11630  7210  7325   un
 11631  7211  7322   un
 11632  7211  7417   un
 11633  7212  7324   un
 11634  7213  7323   un
 11635  7213  7419   un
 11636  7214  7257   un
 11637  7214  4830   un
 11638  7215  7254   un
 11639  7215  7400   un
 11640  7216  7256   un
 11641  7217  7255   un
 11642  7218  7249   un
 11643  7218  7402   un
 11644  7219  7246   un
 11645  7219  7404   un
 11646  7220  7248   un
 11647  7221  7247   un
 11648  7222  7253   un
 11649  7222  7407   un
 11650  7223  7250   un
 11651  7223  7408   un
 11652  7224  7252   un
 11653  7225  7251   un
 11654  7226  7245   un
 11655  7226  7410   un
 11656  7227  7242   un
 11657  7227  6406   un
 11658  7228  7244   un
 11659  7229  7243   un
 11660  4559  7237   un
 11661  4560  7234   un
 11662  7230  7236   un
 11663  7231  7235   un
 11664  6448  7241   un
 11665  6449  7238   un
 11666  7232  7240   un
 11667  7233  7239   un
 11668  7234  7258   un
 11669  7235  7259   un
 11670  7236  7260   un
 11671  7237  7261   un
 11672  7238  7262   un
 11673  7239  7263   un
 11674  7240  7264   un
 11675  7241  7265   un
 11676  7242  7266   un
 11677  7243  7267   un
 11678  7244  7268   un
 11679  7245  7269   un
 11680  7246  7270   un
 11681  7247  7271   un
 11682  7248  7272   un
 11683  7249  7273   un
 11684  7250  7274   un
 11685  7251  7275   un
 11686  7252  7276   un
 11687  7253  7277   un
 11688  7254  7278   un
 11689  7255  7279   un
 11690  7256  7280   un
 11691  7257  7281   un
 11692  7258  7259   un
 11693  7258  7282    1
 11694  7259  7283    1
 11695  7260  7261   un
 11696  7260  7284    1
 11697  7261  7285    1
 11698  7262  7263   un
 11699  7262  7286    1
 11700  7263  7287    1
 11701  7264  7265   un
 11702  7264  7288    1
 11703  7265  7289    1
 11704  7266  7267   un
 11705  7266  7290    1
 11706  7267  7291    1
 11707  7268  7269   un
 11708  7268  7292    1
 11709  7269  7293    1
 11710  7270  7271   un
 11711  7270  7294    1
 11712  7271  7295    1
 11713  7272  7273   un
 11714  7272  7296    1
 11715  7273  7297    1
 11716  7274  7275   un
 11717  7274  7298    1
 11718  7275  7299    1
 11719  7276  7277   un
 11720  7276  7300    1
 11721  7277  7301    1
 11722  7278  7279   un
 11723  7278  7302    1
 11724  7279  7303    1
 11725  7280  7281   un
 11726  7280  7304    1
 11727  7281  7305    1
 11728  7306  7330   un
 11729  7307  7331   un
 11730  7308  7332   un
 11731  7309  7333   un
 11732  7310  7334   un
 11733  7311  7335   un
 11734  7312  7336   un
 11735  7313  7337   un
 11736  7314  7338   un
 11737  7315  7339   un
 11738  7316  7340   un
 11739  7317  7341   un
 11740  7318  7342   un
 11741  7319  7343   un
 11742  7320  7344   un
 11743  7321  7345   un
 11744  7322  7346   un
 11745  7323  7347   un
 11746  7324  7348   un
 11747  7325  7349   un
 11748  7326  7350   un
 11749  7327  7351   un
 11750  7328  7352   un
 11751  7329  7353   un
 11752  7330  7331   un
 11753  7330  7354    1
 11754  7331  7355    1
 11755  7332  7333   un
 11756  7332  7356    1
 11757  7333  7357    1
 11758  7334  7335   un
 11759  7334  7358    1
 11760  7335  7359    1
 11761  7336  7337   un
 11762  7336  7360    1
 11763  7337  7361    1
 11764  7338  7339   un
 11765  7338  7362    1
 11766  7339  7363    1
 11767  7340  7341   un
 11768  7340  7364    1
 11769  7341  7365    1
 11770  7342  7343   un
 11771  7342  7366    1
 11772  7343  7367    1
 11773  7344  7345   un
 11774  7344  7368    1
 11775  7345  7369    1
 11776  7346  7347   un
 11777  7346  7370    1
 11778  7347  7371    1
 11779  7348  7349   un
 11780  7348  7372    1
 11781  7349  7373    1
 11782  7350  7351   un
 11783  7350  7374    1
 11784  7351  7375    1
 11785  7352  7353   un
 11786  7352  7376    1
 11787  7353  7377    1
 11788  7378  7400    1
 11789  7378  7415    1
 11790  7380  7402    1
 11791  7380  6417    1
 11792  7381  7404    1
 11793  7381  7419    1
 11794  7383  7407    1
 11795  7383  7411    1
 11796  7384  7408    1
 11797  7384  7413    1
 11798  7386  7410    1
 11799  7387  7403    1
 11800  7387  7410    1
 11801  7388  6398    1
 11802  7388  6406    1
 11803  7390  7402    1
 11804  7392  7407    1
 11805  7395  7414    1
 11806  7395  7419    1
 11807  7396  7412    1
 11808  7396  7415    1
 11809  7398  7413    1
 11810  7398  7417    1
 11811  7399  7403   un
 11812  7399  7418   un
 11813  7399  7444    1
 11814  7399  7452    1
 11815  7399  7457    1
 11816  7400  7406   un
 11817  7400  7415   un
 11818  7400  7454    1
 11819  6393  7402   un
 11820  6393  7459    1
 11821  7401  7408   un
 11822  7401  7417   un
 11823  7401  7446    1
 11824  7401  7451    1
 11825  5445  7455    1
 11826  7402  6417   un
 11827  7402  7459    1
 11828  4522  7456    1
 11829  7403  7410   un
 11830  7403  7418   un
 11831  7403  7457    1
 11832  7404  7409   un
 11833  7404  7419   un
 11834  7404  7449    1
 11835  7405  7407   un
 11836  7405  7411   un
 11837  7405  7416   un
 11838  7405  7453    1
 11839  7405  7458    1
 11840  7406  7412   un
 11841  7406  7447    1
 11842  7406  7454    1
 11843  6747  7450    1
 11844  7407  7411   un
 11845  7407  7458    1
 11846  7408  7413   un
 11847  7408  7451    1
 11848  7409  7414   un
 11849  7409  7448    1
 11850  7409  7449    1
 11851  7410  7418   un
 11852  7410  7460    1
 11853  7411  7416   un
 11854  7411  7461    1
 11855  7412  7415   un
 11856  7412  7447    1
 11857  7413  7417   un
 11858  7414  7419   un
 11859  7414  7448    1
 11860  7416  7445    1
 11861  7416  7453    1
 11862  7416  7461    1
 11863  7417  7446    1
 11864  4537  7456    1
 11865  7418  7444    1
 11866  7418  7460    1
 11867  4830  7471   un
 11868  4830  7489   un
 11869  4830  7513   un
 11870  4830  7754    1
 11871  7400  7490   un
 11872  7400  7704    1
 11873  7400  7717   un
 11874  7400  7726   un
 11875  7400  7732   un
 11876  7400  7756    1
 11877  7462  7463   un
 11878  7462  7464   un
 11879  7462  7468   un
 11880  7462  7470   un
 11881  7462  7472   un
 11882  7462  7491   un
 11883  7462  7514   un
 11884  7462  7533   un
 11885  7462  7694    1
 11886  7462  7703    1
 11887  7462  7705    1
 11888  7462  7706    1
 11889  4832  7492   un
 11890  4832  7534   un
 11891  4832  7727   un
 11892  4832  7733   un
 11893  4832  7753    1
 11894  4833  7473   un
 11895  4833  7493   un
 11896  4833  7515   un
 11897  4834  7494   un
 11898  4834  7728   un
 11899  4834  7734   un
 11900  7463  7464   un
 11901  7463  7466   un
 11902  7463  7470   un
 11903  7463  7474   un
 11904  7463  7495   un
 11905  7463  7516   un
 11906  7463  7537   un
 11907  7463  7697    1
 11908  7463  7701    1
 11909  7463  7705    1
 11910  7463  7706    1
 11911  6745  7496   un
 11912  6745  7538   un
 11913  6745  7729   un
 11914  6745  7735   un
 11915  6745  7749    1
 11916  6747  7475   un
 11917  6747  7497   un
 11918  6747  7517   un
 11919  6748  7498   un
 11920  6748  7702    1
 11921  6748  7714   un
 11922  6748  7730   un
 11923  6748  7736   un
 11924  6748  7757    1
 11925  7464  7466   un
 11926  7464  7468   un
 11927  7464  7476   un
 11928  7464  7499   un
 11929  7464  7518   un
 11930  7464  7541   un
 11931  7464  7700    1
 11932  7464  7701    1
 11933  7464  7703    1
 11934  7464  7706    1
 11935  7409  7500   un
 11936  7409  7542   un
 11937  7409  7711   un
 11938  7409  7731   un
 11939  7409  7737   un
 11940  7409  7751    1
 11941  7409  7755    1
 11942  7465  7477   un
 11943  7465  7501   un
 11944  7465  7519   un
 11945  7465  7696    1
 11946  7465  7707    1
 11947  7465  7715   un
 11948  7465  7719   un
 11949  7465  7722   un
 11950  7465  7725   un
 11951  7465  7738   un
 11952  7465  7747    1
 11953  7465  7748    1
 11954  6750  7502   un
 11955  6750  7739   un
 11956  6750  7749    1
 11957  7466  7468   un
 11958  7466  7470   un
 11959  7466  7479   un
 11960  7466  7503   un
 11961  7466  7521   un
 11962  7466  7543   un
 11963  7466  7697    1
 11964  7466  7700    1
 11965  7466  7701    1
 11966  7466  7709    1
 11967  6751  7504   un
 11968  6751  7544   un
 11969  6751  7695    1
 11970  6751  7702    1
 11971  6751  7714   un
 11972  7467  7481   un
 11973  7467  7505   un
 11974  7467  7523   un
 11975  7467  7699    1
 11976  7467  7710    1
 11977  7467  7713   un
 11978  7467  7718   un
 11979  7467  7721   un
 11980  7467  7724   un
 11981  7467  7740   un
 11982  7467  7745    1
 11983  7467  7750    1
 11984  7414  7506   un
 11985  7414  7711   un
 11986  7414  7741   un
 11987  7414  7744    1
 11988  7414  7751    1
 11989  7468  7470   un
 11990  7468  7483   un
 11991  7468  7507   un
 11992  7468  7525   un
 11993  7468  7545   un
 11994  7468  7694    1
 11995  7468  7700    1
 11996  7468  7703    1
 11997  7468  7709    1
 11998  7415  7508   un
 11999  7415  7546   un
 12000  7415  7698    1
 12001  7415  7704    1
 12002  7415  7717   un
 12003  7469  7485   un
 12004  7469  7509   un
 12005  7469  7527   un
 12006  7469  7693    1
 12007  7469  7708    1
 12008  7469  7712   un
 12009  7469  7716   un
 12010  7469  7720   un
 12011  7469  7723   un
 12012  7469  7742   un
 12013  7469  7746    1
 12014  7469  7752    1
 12015  4843  7510   un
 12016  4843  7743   un
 12017  4843  7753    1
 12018  7470  7487   un
 12019  7470  7511   un
 12020  7470  7529   un
 12021  7470  7547   un
 12022  7470  7694    1
 12023  7470  7697    1
 12024  7470  7705    1
 12025  7470  7709    1
 12026  4844  7512   un
 12027  4844  7548   un
 12028  7471  7621   un
 12029  6760  7622   un
 12030  7472  7623   un
 12031  6761  7624   un
 12032  7473  7625   un
 12033  7422  7626   un
 12034  7474  7627   un
 12035  7423  7628   un
 12036  7475  7629   un
 12037  4849  7630   un
 12038  7476  7631   un
 12039  4850  7632   un
 12040  7477  7633   un
 12041  7478  7634   un
 12042  7478  7720   un
 12043  7479  7635   un
 12044  7480  7636   un
 12045  7480  7721   un
 12046  7481  7637   un
 12047  7482  7638   un
 12048  7482  7722   un
 12049  7483  7639   un
 12050  7484  7640   un
 12051  7484  7723   un
 12052  7485  7641   un
 12053  7486  7642   un
 12054  7486  7724   un
 12055  7487  7643   un
 12056  7488  7644   un
 12057  7488  7725   un
 12058  7489  7549   un
 12059  7490  7550   un
 12060  7491  7551   un
 12061  7492  7552   un
 12062  7493  7553   un
 12063  7494  7554   un
 12064  7495  7555   un
 12065  7496  7556   un
 12066  7497  7557   un
 12067  7498  7558   un
 12068  7499  7559   un
 12069  7500  7560   un
 12070  7501  7561   un
 12071  7502  7562   un
 12072  7503  7563   un
 12073  7504  7564   un
 12074  7505  7565   un
 12075  7506  7566   un
 12076  7507  7567   un
 12077  7508  7568   un
 12078  7509  7569   un
 12079  7510  7570   un
 12080  7511  7571   un
 12081  7512  7572   un
 12082  7513  7632   un
 12083  6768  7629   un
 12084  7514  7631   un
 12085  6769  7630   un
 12086  7515  7624   un
 12087  7430  7621   un
 12088  7516  7623   un
 12089  7431  7622   un
 12090  7517  7628   un
 12091  4855  7625   un
 12092  7518  7627   un
 12093  4856  7626   un
 12094  7519  7644   un
 12095  7520  7641   un
 12096  7520  7720   un
 12097  7521  7643   un
 12098  7522  7642   un
 12099  7522  7721   un
 12100  7523  7636   un
 12101  7524  7633   un
 12102  7524  7722   un
 12103  7525  7635   un
 12104  7526  7634   un
 12105  7526  7723   un
 12106  7527  7640   un
 12107  7528  7637   un
 12108  7528  7724   un
 12109  7529  7639   un
 12110  7530  7638   un
 12111  7530  7725   un
 12112  7531  7572   un
 12113  7531  5128   un
 12114  7532  7569   un
 12115  7532  7712   un
 12116  7533  7571   un
 12117  7534  7570   un
 12118  7535  7564   un
 12119  7535  7714   un
 12120  7536  7561   un
 12121  7536  7715   un
 12122  7537  7563   un
 12123  7538  7562   un
 12124  7539  7568   un
 12125  7539  7717   un
 12126  7540  7565   un
 12127  7540  7718   un
 12128  7541  7567   un
 12129  7542  7566   un
 12130  7438  7560   un
 12131  7439  7557   un
 12132  7543  7559   un
 12133  7544  7558   un
 12134  4859  7552   un
 12135  4860  7549   un
 12136  7545  7551   un
 12137  7546  7550   un
 12138  6782  7556   un
 12139  6783  7553   un
 12140  7547  7555   un
 12141  7548  7554   un
 12142  7549  7573   un
 12143  7550  7574   un
 12144  7551  7575   un
 12145  7552  7576   un
 12146  7553  7577   un
 12147  7554  7578   un
 12148  7555  7579   un
 12149  7556  7580   un
 12150  7557  7581   un
 12151  7558  7582   un
 12152  7559  7583   un
 12153  7560  7584   un
 12154  7561  7585   un
 12155  7562  7586   un
 12156  7563  7587   un
 12157  7564  7588   un
 12158  7565  7589   un
 12159  7566  7590   un
 12160  7567  7591   un
 12161  7568  7592   un
 12162  7569  7593   un
 12163  7570  7594   un
 12164  7571  7595   un
 12165  7572  7596   un
 12166  7573  7574   un
 12167  7573  7597    1
 12168  7574  7598    1
 12169  7575  7576   un
 12170  7575  7599    1
 12171  7576  7600    1
 12172  7577  7578   un
 12173  7577  7601    1
 12174  7578  7602    1
 12175  7579  7580   un
 12176  7579  7603    1
 12177  7580  7604    1
 12178  7581  7582   un
 12179  7581  7605    1
 12180  7582  7606    1
 12181  7583  7584   un
 12182  7583  7607    1
 12183  7584  7608    1
 12184  7585  7586   un
 12185  7585  7609    1
 12186  7586  7610    1
 12187  7587  7588   un
 12188  7587  7611    1
 12189  7588  7612    1
 12190  7589  7590   un
 12191  7589  7613    1
 12192  7590  7614    1
 12193  7591  7592   un
 12194  7591  7615    1
 12195  7592  7616    1
 12196  7593  7594   un
 12197  7593  7617    1
 12198  7594  7618    1
 12199  7595  7596   un
 12200  7595  7619    1
 12201  7596  7620    1
 12202  7621  7645   un
 12203  7622  7646   un
 12204  7623  7647   un
 12205  7624  7648   un
 12206  7625  7649   un
 12207  7626  7650   un
 12208  7627  7651   un
 12209  7628  7652   un
 12210  7629  7653   un
 12211  7630  7654   un
 12212  7631  7655   un
 12213  7632  7656   un
 12214  7633  7657   un
 12215  7634  7658   un
 12216  7635  7659   un
 12217  7636  7660   un
 12218  7637  7661   un
 12219  7638  7662   un
 12220  7639  7663   un
 12221  7640  7664   un
 12222  7641  7665   un
 12223  7642  7666   un
 12224  7643  7667   un
 12225  7644  7668   un
 12226  7645  7646   un
 12227  7645  7669    1
 12228  7646  7670    1
 12229  7647  7648   un
 12230  7647  7671    1
 12231  7648  7672    1
 12232  7649  7650   un
 12233  7649  7673    1
 12234  7650  7674    1
 12235  7651  7652   un
 12236  7651  7675    1
 12237  7652  7676    1
 12238  7653  7654   un
 12239  7653  7677    1
 12240  7654  7678    1
 12241  7655  7656   un
 12242  7655  7679    1
 12243  7656  7680    1
 12244  7657  7658   un
 12245  7657  7681    1
 12246  7658  7682    1
 12247  7659  7660   un
 12248  7659  7683    1
 12249  7660  7684    1
 12250  7661  7662   un
 12251  7661  7685    1
 12252  7662  7686    1
 12253  7663  7664   un
 12254  7663  7687    1
 12255  7664  7688    1
 12256  7665  7666   un
 12257  7665  7689    1
 12258  7666  7690    1
 12259  7667  7668   un
 12260  7667  7691    1
 12261  7668  7692    1
 12262  7693  7712    1
 12263  7693  7723    1
 12264  7695  7714    1
 12265  7695  6758    1
 12266  7696  7715    1
 12267  7696  7725    1
 12268  7698  7717    1
 12269  7698  7412    1
 12270  7699  7718    1
 12271  7699  7721    1
 12272  7702  7714    1
 12273  7704  7717    1
 12274  7707  7722    1
 12275  7707  7725    1
 12276  7708  7720    1
 12277  7708  7723    1
 12278  7710  7721    1
 12279  7710  7724    1
 12280  7711  7404   un
 12281  7711  7419   un
 12282  7711  7744    1
 12283  7711  7751    1
 12284  7711  7755    1
 12285  7712  7716   un
 12286  7712  7723   un
 12287  7712  7752    1
 12288  6742  7714   un
 12289  6742  7757    1
 12290  7713  7718   un
 12291  7713  7724   un
 12292  7713  7745    1
 12293  7713  7750    1
 12294  5760  7753    1
 12295  7714  6758   un
 12296  7714  7757    1
 12297  4523  7754    1
 12298  7404  7755    1
 12299  7715  7719   un
 12300  7715  7725   un
 12301  7715  7748    1
 12302  7406  7717   un
 12303  7406  7756    1
 12304  7716  7720   un
 12305  7716  7746    1
 12306  7716  7752    1
 12307  7078  7749    1
 12308  7717  7412   un
 12309  7717  7756    1
 12310  7718  7721   un
 12311  7718  7750    1
 12312  7719  7722   un
 12313  7719  7747    1
 12314  7719  7748    1
 12315  7720  7723   un
 12316  7720  7746    1
 12317  7721  7724   un
 12318  7722  7725   un
 12319  7722  7747    1
 12320  7724  7745    1
 12321  4538  7754    1
 12322  7419  7744    1
 12323  5128  7767   un
 12324  5128  7785   un
 12325  5128  7809   un
 12326  5128  8054    1
 12327  7712  7786   un
 12328  7712  8001    1
 12329  7712  8016   un
 12330  7712  8025   un
 12331  7712  8031   un
 12332  7712  8058    1
 12333  7758  7759   un
 12334  7758  7760   un
 12335  7758  7764   un
 12336  7758  7766   un
 12337  7758  7768   un
 12338  7758  7787   un
 12339  7758  7810   un
 12340  7758  7829   un
 12341  7758  7991    1
 12342  7758  8000    1
 12343  7758  8002    1
 12344  7758  8003    1
 12345  5130  7788   un
 12346  5130  7830   un
 12347  5130  8026   un
 12348  5130  8032   un
 12349  5130  8053    1
 12350  5131  7769   un
 12351  5131  7789   un
 12352  5131  7811   un
 12353  5132  7790   un
 12354  5132  8008   un
 12355  5132  8027   un
 12356  5132  8033   un
 12357  5132  8055    1
 12358  7759  7760   un
 12359  7759  7762   un
 12360  7759  7766   un
 12361  7759  7770   un
 12362  7759  7791   un
 12363  7759  7812   un
 12364  7759  7833   un
 12365  7759  7994    1
 12366  7759  7998    1
 12367  7759  8002    1
 12368  7759  8003    1
 12369  7076  7792   un
 12370  7076  7834   un
 12371  7076  8015   un
 12372  7076  8028   un
 12373  7076  8034   un
 12374  7076  8049    1
 12375  7076  8057    1
 12376  7078  7771   un
 12377  7078  7793   un
 12378  7078  7813   un
 12379  7079  7794   un
 12380  7079  7999    1
 12381  7079  8012   un
 12382  7079  8029   un
 12383  7079  8035   un
 12384  7079  8059    1
 12385  7760  7762   un
 12386  7760  7764   un
 12387  7760  7772   un
 12388  7760  7795   un
 12389  7760  7814   un
 12390  7760  7837   un
 12391  7760  7997    1
 12392  7760  7998    1
 12393  7760  8000    1
 12394  7760  8003    1
 12395  7719  7796   un
 12396  7719  7838   un
 12397  7719  8009   un
 12398  7719  8030   un
 12399  7719  8036   un
 12400  7719  8051    1
 12401  7719  8056    1
 12402  7761  7773   un
 12403  7761  7797   un
 12404  7761  7815   un
 12405  7761  7993    1
 12406  7761  8004    1
 12407  7761  8013   un
 12408  7761  8018   un
 12409  7761  8021   un
 12410  7761  8024   un
 12411  7761  8037   un
 12412  7761  8047    1
 12413  7761  8048    1
 12414  7081  7798   un
 12415  7081  8015   un
 12416  7081  8038   un
 12417  7081  8046    1
 12418  7081  8049    1
 12419  7762  7764   un
 12420  7762  7766   un
 12421  7762  7775   un
 12422  7762  7799   un
 12423  7762  7817   un
 12424  7762  7839   un
 12425  7762  7994    1
 12426  7762  7997    1
 12427  7762  7998    1
 12428  7762  8006    1
 12429  7082  7800   un
 12430  7082  7840   un
 12431  7082  7992    1
 12432  7082  7999    1
 12433  7082  8012   un
 12434  7763  7777   un
 12435  7763  7801   un
 12436  7763  7819   un
 12437  7763  7996    1
 12438  7763  8007    1
 12439  7763  8011   un
 12440  7763  8017   un
 12441  7763  8020   un
 12442  7763  8023   un
 12443  7763  8039   un
 12444  7763  8044    1
 12445  7763  8050    1
 12446  7722  7802   un
 12447  7722  8009   un
 12448  7722  8040   un
 12449  7722  8043    1
 12450  7722  8051    1
 12451  7764  7766   un
 12452  7764  7779   un
 12453  7764  7803   un
 12454  7764  7821   un
 12455  7764  7841   un
 12456  7764  7991    1
 12457  7764  7997    1
 12458  7764  8000    1
 12459  7764  8006    1
 12460  7723  7804   un
 12461  7723  7842   un
 12462  7723  7995    1
 12463  7723  8001    1
 12464  7723  8016   un
 12465  7765  7781   un
 12466  7765  7805   un
 12467  7765  7823   un
 12468  7765  7990    1
 12469  7765  8005    1
 12470  7765  8010   un
 12471  7765  8014   un
 12472  7765  8019   un
 12473  7765  8022   un
 12474  7765  8041   un
 12475  7765  8045    1
 12476  7765  8052    1
 12477  5142  7806   un
 12478  5142  8042   un
 12479  5142  8053    1
 12480  7766  7783   un
 12481  7766  7807   un
 12482  7766  7825   un
 12483  7766  7843   un
 12484  7766  7991    1
 12485  7766  7994    1
 12486  7766  8002    1
 12487  7766  8006    1
 12488  5143  7808   un
 12489  5143  7844   un
 12490  5143  7989    1
 12491  5143  8008   un
 12492  7767  7917   un
 12493  7091  7918   un
 12494  7768  7919   un
 12495  7092  7920   un
 12496  7769  7921   un
 12497  7728  7922   un
 12498  7770  7923   un
 12499  7729  7924   un
 12500  7771  7925   un
 12501  5148  7926   un
 12502  7772  7927   un
 12503  5149  7928   un
 12504  7773  7929   un
 12505  7774  7930   un
 12506  7774  8019   un
 12507  7775  7931   un
 12508  7776  7932   un
 12509  7776  8020   un
 12510  7777  7933   un
 12511  7778  7934   un
 12512  7778  8021   un
 12513  7779  7935   un
 12514  7780  7936   un
 12515  7780  8022   un
 12516  7781  7937   un
 12517  7782  7938   un
 12518  7782  8023   un
 12519  7783  7939   un
 12520  7784  7940   un
 12521  7784  8024   un
 12522  7785  7845   un
 12523  7786  7846   un
 12524  7787  7847   un
 12525  7788  7848   un
 12526  7789  7849   un
 12527  7790  7850   un
 12528  7791  7851   un
 12529  7792  7852   un
 12530  7793  7853   un
 12531  7794  7854   un
 12532  7795  7855   un
 12533  7796  7856   un
 12534  7797  7857   un
 12535  7798  7858   un
 12536  7799  7859   un
 12537  7800  7860   un
 12538  7801  7861   un
 12539  7802  7862   un
 12540  7803  7863   un
 12541  7804  7864   un
 12542  7805  7865   un
 12543  7806  7866   un
 12544  7807  7867   un
 12545  7808  7868   un
 12546  7809  7928   un
 12547  7099  7925   un
 12548  7810  7927   un
 12549  7100  7926   un
 12550  7811  7920   un
 12551  7734  7917   un
 12552  7812  7919   un
 12553  7735  7918   un
 12554  7813  7924   un
 12555  5154  7921   un
 12556  7814  7923   un
 12557  5155  7922   un
 12558  7815  7940   un
 12559  7816  7937   un
 12560  7816  8019   un
 12561  7817  7939   un
 12562  7818  7938   un
 12563  7818  8020   un
 12564  7819  7932   un
 12565  7820  7929   un
 12566  7820  8021   un
 12567  7821  7931   un
 12568  7822  7930   un
 12569  7822  8022   un
 12570  7823  7936   un
 12571  7824  7933   un
 12572  7824  8023   un
 12573  7825  7935   un
 12574  7826  7934   un
 12575  7826  8024   un
 12576  7827  7868   un
 12577  7827  8008   un
 12578  7828  7865   un
 12579  7828  8010   un
 12580  7829  7867   un
 12581  7830  7866   un
 12582  7831  7860   un
 12583  7831  8012   un
 12584  7832  7857   un
 12585  7832  8013   un
 12586  7833  7859   un
 12587  7834  7858   un
 12588  7835  7864   un
 12589  7835  8016   un
 12590  7836  7861   un
 12591  7836  8017   un
 12592  7837  7863   un
 12593  7838  7862   un
 12594  7738  7856   un
 12595  7739  7853   un
 12596  7839  7855   un
 12597  7840  7854   un
 12598  5158  7848   un
 12599  5159  7845   un
 12600  7841  7847   un
 12601  7842  7846   un
 12602  7113  7852   un
 12603  7114  7849   un
 12604  7843  7851   un
 12605  7844  7850   un
 12606  7845  7869   un
 12607  7846  7870   un
 12608  7847  7871   un
 12609  7848  7872   un
 12610  7849  7873   un
 12611  7850  7874   un
 12612  7851  7875   un
 12613  7852  7876   un
 12614  7853  7877   un
 12615  7854  7878   un
 12616  7855  7879   un
 12617  7856  7880   un
 12618  7857  7881   un
 12619  7858  7882   un
 12620  7859  7883   un
 12621  7860  7884   un
 12622  7861  7885   un
 12623  7862  7886   un
 12624  7863  7887   un
 12625  7864  7888   un
 12626  7865  7889   un
 12627  7866  7890   un
 12628  7867  7891   un
 12629  7868  7892   un
 12630  7869  7870   un
 12631  7869  7893    1
 12632  7870  7894    1
 12633  7871  7872   un
 12634  7871  7895    1
 12635  7872  7896    1
 12636  7873  7874   un
 12637  7873  7897    1
 12638  7874  7898    1
 12639  7875  7876   un
 12640  7875  7899    1
 12641  7876  7900    1
 12642  7877  7878   un
 12643  7877  7901    1
 12644  7878  7902    1
 12645  7879  7880   un
 12646  7879  7903    1
 12647  7880  7904    1
 12648  7881  7882   un
 12649  7881  7905    1
 12650  7882  7906    1
 12651  7883  7884   un
 12652  7883  7907    1
 12653  7884  7908    1
 12654  7885  7886   un
 12655  7885  7909    1
 12656  7886  7910    1
 12657  7887  7888   un
 12658  7887  7911    1
 12659  7888  7912    1
 12660  7889  7890   un
 12661  7889  7913    1
 12662  7890  7914    1
 12663  7891  7892   un
 12664  7891  7915    1
 12665  7892  7916    1
 12666  7917  7941   un
 12667  7918  7942   un
 12668  7919  7943   un
 12669  7920  7944   un
 12670  7921  7945   un
 12671  7922  7946   un
 12672  7923  7947   un
 12673  7924  7948   un
 12674  7925  7949   un
 12675  7926  7950   un
 12676  7927  7951   un
 12677  7928  7952   un
 12678  7929  7953   un
 12679  7930  7954   un
 12680  7931  7955   un
 12681  7932  7956   un
 12682  7933  7957   un
 12683  7934  7958   un
 12684  7935  7959   un
 12685  7936  7960   un
 12686  7937  7961   un
 12687  7938  7962   un
 12688  7939  7963   un
 12689  7940  7964   un
 12690  7941  7942   un
 12691  7941  7965    1
 12692  7942  7966    1
 12693  7943  7944   un
 12694  7943  7967    1
 12695  7944  7968    1
 12696  7945  7946   un
 12697  7945  7969    1
 12698  7946  7970    1
 12699  7947  7948   un
 12700  7947  7971    1
 12701  7948  7972    1
 12702  7949  7950   un
 12703  7949  7973    1
 12704  7950  7974    1
 12705  7951  7952   un
 12706  7951  7975    1
 12707  7952  7976    1
 12708  7953  7954   un
 12709  7953  7977    1
 12710  7954  7978    1
 12711  7955  7956   un
 12712  7955  7979    1
 12713  7956  7980    1
 12714  7957  7958   un
 12715  7957  7981    1
 12716  7958  7982    1
 12717  7959  7960   un
 12718  7959  7983    1
 12719  7960  7984    1
 12720  7961  7962   un
 12721  7961  7985    1
 12722  7962  7986    1
 12723  7963  7964   un
 12724  7963  7987    1
 12725  7964  7988    1
 12726  7989  8008    1
 12727  7989  5140    1
 12728  7990  8010    1
 12729  7990  8022    1
 12730  7992  8012    1
 12731  7992  7089    1
 12732  7993  8013    1
 12733  7993  8024    1
 12734  7995  8016    1
 12735  7995  7720    1
 12736  7996  8017    1
 12737  7996  8020    1
 12738  7999  8012    1
 12739  8001  8016    1
 12740  8004  8021    1
 12741  8004  8024    1
 12742  8005  8019    1
 12743  8005  8022    1
 12744  8007  8020    1
 12745  8007  8023    1
 12746  8008  5137   un
 12747  8008  5140   un
 12748  8008  8055    1
 12749  8009  7715   un
 12750  8009  7725   un
 12751  8009  8043    1
 12752  8009  8051    1
 12753  8009  8056    1
 12754  7071  8015   un
 12755  7071  8057    1
 12756  8010  8014   un
 12757  8010  8022   un
 12758  8010  8052    1
 12759  7073  8012   un
 12760  7073  8059    1
 12761  8011  8017   un
 12762  8011  8023   un
 12763  8011  8044    1
 12764  8011  8050    1
 12765  6061  8053    1
 12766  8012  7089   un
 12767  8012  8059    1
 12768  4834  8054    1
 12769  7715  8056    1
 12770  8013  8018   un
 12771  8013  8024   un
 12772  8013  8048    1
 12773  7716  8016   un
 12774  7716  8058    1
 12775  8014  8019   un
 12776  8014  8045    1
 12777  8014  8052    1
 12778  8015  7086   un
 12779  8015  8046    1
 12780  8015  8049    1
 12781  8015  8057    1
 12782  8016  7720   un
 12783  8016  8058    1
 12784  8017  8020   un
 12785  8017  8050    1
 12786  5137  8055    1
 12787  8018  8021   un
 12788  8018  8047    1
 12789  8018  8048    1
 12790  8019  8022   un
 12791  8019  8045    1
 12792  8020  8023   un
 12793  8021  8024   un
 12794  8021  8047    1
 12795  7086  8046    1
 12796  8023  8044    1
 12797  4844  8054    1
 12798  7725  8043    1
 12799  5441  8073   un
 12800  5441  8093   un
 12801  5441  8117   un
 12802  5441  8360   un
 12803  5441  8381    1
 12804  8060  8070   un
 12805  8060  8094   un
 12806  8060  8315    1
 12807  8060  8329   un
 12808  8060  8331   un
 12809  8060  8340   un
 12810  8060  8344   un
 12811  8060  8352   un
 12812  8060  8361   un
 12813  8060  8369    1
 12814  8060  8378    1
 12815  8060  8383    1
 12816  8061  8062   un
 12817  8061  8063   un
 12818  8061  8069   un
 12819  8061  8072   un
 12820  8061  8074   un
 12821  8061  8095   un
 12822  8061  8118   un
 12823  8061  8139   un
 12824  8061  8302    1
 12825  8061  8314    1
 12826  8061  8316    1
 12827  8061  8317    1
 12828  5443  8096   un
 12829  5443  8140   un
 12830  5443  8325   un
 12831  5443  8345   un
 12832  5443  8353   un
 12833  5443  8380    1
 12834  5443  8384    1
 12835  5445  8075   un
 12836  5445  8097   un
 12837  5445  8119   un
 12838  5447  8098   un
 12839  5447  8346   un
 12840  5447  8354   un
 12841  8062  8063   un
 12842  8062  8066   un
 12843  8062  8072   un
 12844  8062  8077   un
 12845  8062  8099   un
 12846  8062  8121   un
 12847  8062  8143   un
 12848  8062  8305    1
 12849  8062  8312    1
 12850  8062  8316    1
 12851  8062  8317    1
 12852  7406  8100   un
 12853  7406  8144   un
 12854  7406  8347   un
 12855  7406  8355   un
 12856  7406  8375    1
 12857  7407  8079   un
 12858  7407  8101   un
 12859  7407  8123   un
 12860  7407  8311    1
 12861  7408  8102   un
 12862  7408  8313    1
 12863  7408  8326   un
 12864  7408  8348   un
 12865  7408  8356   un
 12866  7408  8385    1
 12867  8063  8066   un
 12868  8063  8069   un
 12869  8063  8080   un
 12870  8063  8103   un
 12871  8063  8124   un
 12872  8063  8147   un
 12873  8063  8308    1
 12874  8063  8312    1
 12875  8063  8314    1
 12876  8063  8317    1
 12877  8064  8068   un
 12878  8064  8104   un
 12879  8064  8148   un
 12880  8064  8309    1
 12881  8064  8310    1
 12882  8064  8322   un
 12883  8064  8327   un
 12884  8064  8334   un
 12885  8064  8349   un
 12886  8064  8357   un
 12887  8064  8377    1
 12888  8064  8382    1
 12889  8065  8081   un
 12890  8065  8105   un
 12891  8065  8125   un
 12892  8065  8304    1
 12893  8065  8318    1
 12894  8065  8328   un
 12895  8065  8333   un
 12896  8065  8338   un
 12897  8065  8343   un
 12898  8065  8362   un
 12899  8065  8373    1
 12900  8065  8374    1
 12901  7412  8106   un
 12902  7412  8363   un
 12903  7412  8375    1
 12904  8066  8069   un
 12905  8066  8072   un
 12906  8066  8083   un
 12907  8066  8107   un
 12908  8066  8127   un
 12909  8066  8151   un
 12910  8066  8305    1
 12911  8066  8308    1
 12912  8066  8312    1
 12913  8066  8320    1
 12914  7413  8108   un
 12915  7413  8152   un
 12916  7413  8303    1
 12917  7413  8313    1
 12918  7413  8326   un
 12919  8067  8085   un
 12920  8067  8109   un
 12921  8067  8129   un
 12922  8067  8307    1
 12923  8067  8321    1
 12924  8067  8324   un
 12925  8067  8332   un
 12926  8067  8337   un
 12927  8067  8341   un
 12928  8067  8364   un
 12929  8067  8370    1
 12930  8067  8376    1
 12931  8068  8110   un
 12932  8068  8309    1
 12933  8068  8322   un
 12934  8068  8334   un
 12935  8068  8342   un
 12936  8068  8350   un
 12937  8068  8358   un
 12938  8068  8365   un
 12939  8068  8368    1
 12940  8068  8377    1
 12941  8068  8386    1
 12942  8069  8072   un
 12943  8069  8087   un
 12944  8069  8111   un
 12945  8069  8131   un
 12946  8069  8153   un
 12947  8069  8302    1
 12948  8069  8308    1
 12949  8069  8314    1
 12950  8069  8320    1
 12951  8070  8112   un
 12952  8070  8154   un
 12953  8070  8306    1
 12954  8070  8315    1
 12955  8070  8331   un
 12956  8070  8335   un
 12957  8070  8340   un
 12958  8070  8351   un
 12959  8070  8359   un
 12960  8070  8369    1
 12961  8070  8387    1
 12962  8071  8089   un
 12963  8071  8113   un
 12964  8071  8133   un
 12965  8071  8301    1
 12966  8071  8319    1
 12967  8071  8323   un
 12968  8071  8330   un
 12969  8071  8336   un
 12970  8071  8339   un
 12971  8071  8366   un
 12972  8071  8372    1
 12973  8071  8379    1
 12974  5460  8114   un
 12975  5460  8325   un
 12976  5460  8367   un
 12977  5460  8371    1
 12978  5460  8380    1
 12979  8072  8091   un
 12980  8072  8115   un
 12981  8072  8135   un
 12982  8072  8155   un
 12983  8072  8302    1
 12984  8072  8305    1
 12985  8072  8316    1
 12986  8072  8320    1
 12987  5462  8116   un
 12988  5462  8156   un
 12989  8073  8229   un
 12990  7420  8230   un
 12991  8074  8231   un
 12992  7421  8232   un
 12993  8075  8233   un
 12994  8076  8234   un
 12995  8076  5446   un
 12996  8077  8235   un
 12997  8078  8236   un
 12998  8078  7405   un
 12999  8079  8237   un
 13000  5467  8238   un
 13001  8080  8239   un
 13002  5468  8240   un
 13003  8081  8241   un
 13004  8082  8242   un
 13005  8082  8336   un
 13006  8083  8243   un
 13007  8084  8244   un
 13008  8084  8337   un
 13009  8085  8245   un
 13010  8086  8246   un
 13011  8086  8338   un
 13012  8087  8247   un
 13013  8088  8248   un
 13014  8088  8339   un
 13015  8089  8249   un
 13016  8090  8250   un
 13017  8090  8341   un
 13018  8091  8251   un
 13019  8092  8252   un
 13020  8092  8343   un
 13021  8093  8157   un
 13022  8094  8158   un
 13023  8095  8159   un
 13024  8096  8160   un
 13025  8097  8161   un
 13026  8098  8162   un
 13027  8099  8163   un
 13028  8100  8164   un
 13029  8101  8165   un
 13030  8102  8166   un
 13031  8103  8167   un
 13032  8104  8168   un
 13033  8105  8169   un
 13034  8106  8170   un
 13035  8107  8171   un
 13036  8108  8172   un
 13037  8109  8173   un
 13038  8110  8174   un
 13039  8111  8175   un
 13040  8112  8176   un
 13041  8113  8177   un
 13042  8114  8178   un
 13043  8115  8179   un
 13044  8116  8180   un
 13045  8117  8240   un
 13046  7428  8237   un
 13047  8118  8239   un
 13048  7429  8238   un
 13049  8119  8232   un
 13050  8120  8229   un
 13051  8120  5446   un
 13052  8121  8231   un
 13053  8122  8230   un
 13054  8122  7405   un
 13055  8123  8236   un
 13056  5475  8233   un
 13057  8124  8235   un
 13058  5476  8234   un
 13059  8125  8252   un
 13060  8126  8249   un
 13061  8126  8336   un
 13062  8127  8251   un
 13063  8128  8250   un
 13064  8128  8337   un
 13065  8129  8244   un
 13066  8130  8241   un
 13067  8130  8338   un
 13068  8131  8243   un
 13069  8132  8242   un
 13070  8132  8339   un
 13071  8133  8248   un
 13072  8134  8245   un
 13073  8134  8341   un
 13074  8135  8247   un
 13075  8136  8246   un
 13076  8136  8343   un
 13077  8137  8180   un
 13078  8137  5756   un
 13079  8138  8177   un
 13080  8138  8323   un
 13081  8139  8179   un
 13082  8140  8178   un
 13083  8141  8172   un
 13084  8141  8326   un
 13085  8142  8169   un
 13086  8142  8328   un
 13087  8143  8171   un
 13088  8144  8170   un
 13089  8145  8176   un
 13090  8145  8331   un
 13091  8146  8173   un
 13092  8146  8332   un
 13093  8147  8175   un
 13094  8148  8174   un
 13095  8149  8168   un
 13096  8149  8334   un
 13097  8150  8165   un
 13098  8150  7411   un
 13099  8151  8167   un
 13100  8152  8166   un
 13101  5483  8160   un
 13102  5484  8157   un
 13103  8153  8159   un
 13104  8154  8158   un
 13105  7442  8164   un
 13106  7443  8161   un
 13107  8155  8163   un
 13108  8156  8162   un
 13109  8157  8181   un
 13110  8158  8182   un
 13111  8159  8183   un
 13112  8160  8184   un
 13113  8161  8185   un
 13114  8162  8186   un
 13115  8163  8187   un
 13116  8164  8188   un
 13117  8165  8189   un
 13118  8166  8190   un
 13119  8167  8191   un
 13120  8168  8192   un
 13121  8169  8193   un
 13122  8170  8194   un
 13123  8171  8195   un
 13124  8172  8196   un
 13125  8173  8197   un
 13126  8174  8198   un
 13127  8175  8199   un
 13128  8176  8200   un
 13129  8177  8201   un
 13130  8178  8202   un
 13131  8179  8203   un
 13132  8180  8204   un
 13133  8181  8182   un
 13134  8181  8205    1
 13135  8182  8206    1
 13136  8183  8184   un
 13137  8183  8207    1
 13138  8184  8208    1
 13139  8185  8186   un
 13140  8185  8209    1
 13141  8186  8210    1
 13142  8187  8188   un
 13143  8187  8211    1
 13144  8188  8212    1
 13145  8189  8190   un
 13146  8189  8213    1
 13147  8190  8214    1
 13148  8191  8192   un
 13149  8191  8215    1
 13150  8192  8216    1
 13151  8193  8194   un
 13152  8193  8217    1
 13153  8194  8218    1
 13154  8195  8196   un
 13155  8195  8219    1
 13156  8196  8220    1
 13157  8197  8198   un
 13158  8197  8221    1
 13159  8198  8222    1
 13160  8199  8200   un
 13161  8199  8223    1
 13162  8200  8224    1
 13163  8201  8202   un
 13164  8201  8225    1
 13165  8202  8226    1
 13166  8203  8204   un
 13167  8203  8227    1
 13168  8204  8228    1
 13169  8229  8253   un
 13170  8230  8254   un
 13171  8231  8255   un
 13172  8232  8256   un
 13173  8233  8257   un
 13174  8234  8258   un
 13175  8235  8259   un
 13176  8236  8260   un
 13177  8237  8261   un
 13178  8238  8262   un
 13179  8239  8263   un
 13180  8240  8264   un
 13181  8241  8265   un
 13182  8242  8266   un
 13183  8243  8267   un
 13184  8244  8268   un
 13185  8245  8269   un
 13186  8246  8270   un
 13187  8247  8271   un
 13188  8248  8272   un
 13189  8249  8273   un
 13190  8250  8274   un
 13191  8251  8275   un
 13192  8252  8276   un
 13193  8253  8254   un
 13194  8253  8277    1
 13195  8254  8278    1
 13196  8255  8256   un
 13197  8255  8279    1
 13198  8256  8280    1
 13199  8257  8258   un
 13200  8257  8281    1
 13201  8258  8282    1
 13202  8259  8260   un
 13203  8259  8283    1
 13204  8260  8284    1
 13205  8261  8262   un
 13206  8261  8285    1
 13207  8262  8286    1
 13208  8263  8264   un
 13209  8263  8287    1
 13210  8264  8288    1
 13211  8265  8266   un
 13212  8265  8289    1
 13213  8266  8290    1
 13214  8267  8268   un
 13215  8267  8291    1
 13216  8268  8292    1
 13217  8269  8270   un
 13218  8269  8293    1
 13219  8270  8294    1
 13220  8271  8272   un
 13221  8271  8295    1
 13222  8272  8296    1
 13223  8273  8274   un
 13224  8273  8297    1
 13225  8274  8298    1
 13226  8275  8276   un
 13227  8275  8299    1
 13228  8276  8300    1
 13229  8301  8323    1
 13230  8301  8339    1
 13231  8303  8326    1
 13232  8303  7417    1
 13233  8304  8328    1
 13234  8304  8343    1
 13235  8306  8331    1
 13236  8306  8335    1
 13237  8307  8332    1
 13238  8307  8337    1
 13239  8309  8334    1
 13240  8310  8327    1
 13241  8310  8334    1
 13242  8311  7405    1
 13243  8311  7411    1
 13244  8313  8326    1
 13245  8315  8331    1
 13246  8318  8338    1
 13247  8318  8343    1
 13248  8319  8336    1
 13249  8319  8339    1
 13250  8321  8337    1
 13251  8321  8341    1
 13252  8322  8327   un
 13253  8322  8342   un
 13254  8322  8368    1
 13255  8322  8377    1
 13256  8322  8382    1
 13257  8323  8330   un
 13258  8323  8339   un
 13259  8323  8379    1
 13260  7401  8326   un
 13261  7401  8385    1
 13262  8324  8332   un
 13263  8324  8341   un
 13264  8324  8370    1
 13265  8324  8376    1
 13266  8325  5451   un
 13267  8325  5456   un
 13268  8325  8371    1
 13269  8325  8380    1
 13270  8325  8384    1
 13271  8326  7417   un
 13272  8326  8385    1
 13273  5446  8381    1
 13274  8327  8334   un
 13275  8327  8342   un
 13276  8327  8382    1
 13277  8328  8333   un
 13278  8328  8343   un
 13279  8328  8374    1
 13280  8329  8331   un
 13281  8329  8335   un
 13282  8329  8340   un
 13283  8329  8378    1
 13284  8329  8383    1
 13285  8330  8336   un
 13286  8330  8372    1
 13287  8330  8379    1
 13288  7717  8375    1
 13289  8331  8335   un
 13290  8331  8383    1
 13291  5451  8384    1
 13292  8332  8337   un
 13293  8332  8376    1
 13294  8333  8338   un
 13295  8333  8373    1
 13296  8333  8374    1
 13297  8334  8342   un
 13298  8334  8386    1
 13299  8335  8340   un
 13300  8335  8387    1
 13301  8336  8339   un
 13302  8336  8372    1
 13303  5456  8371    1
 13304  8337  8341   un
 13305  8338  8343   un
 13306  8338  8373    1
 13307  8340  8369    1
 13308  8340  8378    1
 13309  8340  8387    1
 13310  8341  8370    1
 13311  5461  8381    1
 13312  8342  8368    1
 13313  8342  8386    1
 13314  5756  8397   un
 13315  5756  8415   un
 13316  5756  8439   un
 13317  5756  8682    1
 13318  8323  8416   un
 13319  8323  8630    1
 13320  8323  8644   un
 13321  8323  8653   un
 13322  8323  8659   un
 13323  8323  8684    1
 13324  8388  8389   un
 13325  8388  8390   un
 13326  8388  8394   un
 13327  8388  8396   un
 13328  8388  8398   un
 13329  8388  8417   un
 13330  8388  8440   un
 13331  8388  8459   un
 13332  8388  8620    1
 13333  8388  8629    1
 13334  8388  8631    1
 13335  8388  8632    1
 13336  5758  8418   un
 13337  5758  8460   un
 13338  5758  8640   un
 13339  5758  8654   un
 13340  5758  8660   un
 13341  5758  8681    1
 13342  5758  8685    1
 13343  5760  8399   un
 13344  5760  8419   un
 13345  5760  8441   un
 13346  5761  8420   un
 13347  5761  8655   un
 13348  5761  8661   un
 13349  8389  8390   un
 13350  8389  8392   un
 13351  8389  8396   un
 13352  8389  8400   un
 13353  8389  8421   un
 13354  8389  8442   un
 13355  8389  8463   un
 13356  8389  8623    1
 13357  8389  8627    1
 13358  8389  8631    1
 13359  8389  8632    1
 13360  7716  8422   un
 13361  7716  8464   un
 13362  7716  8656   un
 13363  7716  8662   un
 13364  7716  8677    1
 13365  7717  8401   un
 13366  7717  8423   un
 13367  7717  8443   un
 13368  7718  8424   un
 13369  7718  8628    1
 13370  7718  8641   un
 13371  7718  8657   un
 13372  7718  8663   un
 13373  7718  8686    1
 13374  8390  8392   un
 13375  8390  8394   un
 13376  8390  8402   un
 13377  8390  8425   un
 13378  8390  8444   un
 13379  8390  8467   un
 13380  8390  8626    1
 13381  8390  8627    1
 13382  8390  8629    1
 13383  8390  8632    1
 13384  8333  8426   un
 13385  8333  8468   un
 13386  8333  8637   un
 13387  8333  8658   un
 13388  8333  8664   un
 13389  8333  8679    1
 13390  8333  8683    1
 13391  8391  8403   un
 13392  8391  8427   un
 13393  8391  8445   un
 13394  8391  8622    1
 13395  8391  8633    1
 13396  8391  8642   un
 13397  8391  8646   un
 13398  8391  8649   un
 13399  8391  8652   un
 13400  8391  8665   un
 13401  8391  8675    1
 13402  8391  8676    1
 13403  7720  8428   un
 13404  7720  8666   un
 13405  7720  8677    1
 13406  8392  8394   un
 13407  8392  8396   un
 13408  8392  8405   un
 13409  8392  8429   un
 13410  8392  8447   un
 13411  8392  8469   un
 13412  8392  8623    1
 13413  8392  8626    1
 13414  8392  8627    1
 13415  8392  8635    1
 13416  7721  8430   un
 13417  7721  8470   un
 13418  7721  8621    1
 13419  7721  8628    1
 13420  7721  8641   un
 13421  8393  8407   un
 13422  8393  8431   un
 13423  8393  8449   un
 13424  8393  8625    1
 13425  8393  8636    1
 13426  8393  8639   un
 13427  8393  8645   un
 13428  8393  8648   un
 13429  8393  8651   un
 13430  8393  8667   un
 13431  8393  8672    1
 13432  8393  8678    1
 13433  8338  8432   un
 13434  8338  8637   un
 13435  8338  8668   un
 13436  8338  8671    1
 13437  8338  8679    1
 13438  8394  8396   un
 13439  8394  8409   un
 13440  8394  8433   un
 13441  8394  8451   un
 13442  8394  8471   un
 13443  8394  8620    1
 13444  8394  8626    1
 13445  8394  8629    1
 13446  8394  8635    1
 13447  8339  8434   un
 13448  8339  8472   un
 13449  8339  8624    1
 13450  8339  8630    1
 13451  8339  8644   un
 13452  8395  8411   un
 13453  8395  8435   un
 13454  8395  8453   un
 13455  8395  8619    1
 13456  8395  8634    1
 13457  8395  8638   un
 13458  8395  8643   un
 13459  8395  8647   un
 13460  8395  8650   un
 13461  8395  8669   un
 13462  8395  8674    1
 13463  8395  8680    1
 13464  5770  8436   un
 13465  5770  8640   un
 13466  5770  8670   un
 13467  5770  8673    1
 13468  5770  8681    1
 13469  8396  8413   un
 13470  8396  8437   un
 13471  8396  8455   un
 13472  8396  8473   un
 13473  8396  8620    1
 13474  8396  8623    1
 13475  8396  8631    1
 13476  8396  8635    1
 13477  5771  8438   un
 13478  5771  8474   un
 13479  8397  8547   un
 13480  7726  8548   un
 13481  8398  8549   un
 13482  7727  8550   un
 13483  8399  8551   un
 13484  8346  8552   un
 13485  8400  8553   un
 13486  8347  8554   un
 13487  8401  8555   un
 13488  5776  8556   un
 13489  8402  8557   un
 13490  5777  8558   un
 13491  8403  8559   un
 13492  8404  8560   un
 13493  8404  8647   un
 13494  8405  8561   un
 13495  8406  8562   un
 13496  8406  8648   un
 13497  8407  8563   un
 13498  8408  8564   un
 13499  8408  8649   un
 13500  8409  8565   un
 13501  8410  8566   un
 13502  8410  8650   un
 13503  8411  8567   un
 13504  8412  8568   un
 13505  8412  8651   un
 13506  8413  8569   un
 13507  8414  8570   un
 13508  8414  8652   un
 13509  8415  8475   un
 13510  8416  8476   un
 13511  8417  8477   un
 13512  8418  8478   un
 13513  8419  8479   un
 13514  8420  8480   un
 13515  8421  8481   un
 13516  8422  8482   un
 13517  8423  8483   un
 13518  8424  8484   un
 13519  8425  8485   un
 13520  8426  8486   un
 13521  8427  8487   un
 13522  8428  8488   un
 13523  8429  8489   un
 13524  8430  8490   un
 13525  8431  8491   un
 13526  8432  8492   un
 13527  8433  8493   un
 13528  8434  8494   un
 13529  8435  8495   un
 13530  8436  8496   un
 13531  8437  8497   un
 13532  8438  8498   un
 13533  8439  8558   un
 13534  7732  8555   un
 13535  8440  8557   un
 13536  7733  8556   un
 13537  8441  8550   un
 13538  8354  8547   un
 13539  8442  8549   un
 13540  8355  8548   un
 13541  8443  8554   un
 13542  5782  8551   un
 13543  8444  8553   un
 13544  5783  8552   un
 13545  8445  8570   un
 13546  8446  8567   un
 13547  8446  8647   un
 13548  8447  8569   un
 13549  8448  8568   un
 13550  8448  8648   un
 13551  8449  8562   un
 13552  8450  8559   un
 13553  8450  8649   un
 13554  8451  8561   un
 13555  8452  8560   un
 13556  8452  8650   un
 13557  8453  8566   un
 13558  8454  8563   un
 13559  8454  8651   un
 13560  8455  8565   un
 13561  8456  8564   un
 13562  8456  8652   un
 13563  8457  8498   un
 13564  8457  6057   un
 13565  8458  8495   un
 13566  8458  8638   un
 13567  8459  8497   un
 13568  8460  8496   un
 13569  8461  8490   un
 13570  8461  8641   un
 13571  8462  8487   un
 13572  8462  8642   un
 13573  8463  8489   un
 13574  8464  8488   un
 13575  8465  8494   un
 13576  8465  8644   un
 13577  8466  8491   un
 13578  8466  8645   un
 13579  8467  8493   un
 13580  8468  8492   un
 13581  8362  8486   un
 13582  8363  8483   un
 13583  8469  8485   un
 13584  8470  8484   un
 13585  5786  8478   un
 13586  5787  8475   un
 13587  8471  8477   un
 13588  8472  8476   un
 13589  7742  8482   un
 13590  7743  8479   un
 13591  8473  8481   un
 13592  8474  8480   un
 13593  8475  8499   un
 13594  8476  8500   un
 13595  8477  8501   un
 13596  8478  8502   un
 13597  8479  8503   un
 13598  8480  8504   un
 13599  8481  8505   un
 13600  8482  8506   un
 13601  8483  8507   un
 13602  8484  8508   un
 13603  8485  8509   un
 13604  8486  8510   un
 13605  8487  8511   un
 13606  8488  8512   un
 13607  8489  8513   un
 13608  8490  8514   un
 13609  8491  8515   un
 13610  8492  8516   un
 13611  8493  8517   un
 13612  8494  8518   un
 13613  8495  8519   un
 13614  8496  8520   un
 13615  8497  8521   un
 13616  8498  8522   un
 13617  8499  8500   un
 13618  8499  8523    1
 13619  8500  8524    1
 13620  8501  8502   un
 13621  8501  8525    1
 13622  8502  8526    1
 13623  8503  8504   un
 13624  8503  8527    1
 13625  8504  8528    1
 13626  8505  8506   un
 13627  8505  8529    1
 13628  8506  8530    1
 13629  8507  8508   un
 13630  8507  8531    1
 13631  8508  8532    1
 13632  8509  8510   un
 13633  8509  8533    1
 13634  8510  8534    1
 13635  8511  8512   un
 13636  8511  8535    1
 13637  8512  8536    1
 13638  8513  8514   un
 13639  8513  8537    1
 13640  8514  8538    1
 13641  8515  8516   un
 13642  8515  8539    1
 13643  8516  8540    1
 13644  8517  8518   un
 13645  8517  8541    1
 13646  8518  8542    1
 13647  8519  8520   un
 13648  8519  8543    1
 13649  8520  8544    1
 13650  8521  8522   un
 13651  8521  8545    1
 13652  8522  8546    1
 13653  8547  8571   un
 13654  8548  8572   un
 13655  8549  8573   un
 13656  8550  8574   un
 13657  8551  8575   un
 13658  8552  8576   un
 13659  8553  8577   un
 13660  8554  8578   un
 13661  8555  8579   un
 13662  8556  8580   un
 13663  8557  8581   un
 13664  8558  8582   un
 13665  8559  8583   un
 13666  8560  8584   un
 13667  8561  8585   un
 13668  8562  8586   un
 13669  8563  8587   un
 13670  8564  8588   un
 13671  8565  8589   un
 13672  8566  8590   un
 13673  8567  8591   un
 13674  8568  8592   un
 13675  8569  8593   un
 13676  8570  8594   un
 13677  8571  8572   un
 13678  8571  8595    1
 13679  8572  8596    1
 13680  8573  8574   un
 13681  8573  8597    1
 13682  8574  8598    1
 13683  8575  8576   un
 13684  8575  8599    1
 13685  8576  8600    1
 13686  8577  8578   un
 13687  8577  8601    1
 13688  8578  8602    1
 13689  8579  8580   un
 13690  8579  8603    1
 13691  8580  8604    1
 13692  8581  8582   un
 13693  8581  8605    1
 13694  8582  8606    1
 13695  8583  8584   un
 13696  8583  8607    1
 13697  8584  8608    1
 13698  8585  8586   un
 13699  8585  8609    1
 13700  8586  8610    1
 13701  8587  8588   un
 13702  8587  8611    1
 13703  8588  8612    1
 13704  8589  8590   un
 13705  8589  8613    1
 13706  8590  8614    1
 13707  8591  8592   un
 13708  8591  8615    1
 13709  8592  8616    1
 13710  8593  8594   un
 13711  8593  8617    1
 13712  8594  8618    1
 13713  8619  8638    1
 13714  8619  8650    1
 13715  8621  8641    1
 13716  8621  7724    1
 13717  8622  8642    1
 13718  8622  8652    1
 13719  8624  8644    1
 13720  8624  8336    1
 13721  8625  8645    1
 13722  8625  8648    1
 13723  8628  8641    1
 13724  8630  8644    1
 13725  8633  8649    1
 13726  8633  8652    1
 13727  8634  8647    1
 13728  8634  8650    1
 13729  8636  8648    1
 13730  8636  8651    1
 13731  8637  8328   un
 13732  8637  8343   un
 13733  8637  8671    1
 13734  8637  8679    1
 13735  8637  8683    1
 13736  8638  8643   un
 13737  8638  8650   un
 13738  8638  8680    1
 13739  7713  8641   un
 13740  7713  8686    1
 13741  8639  8645   un
 13742  8639  8651   un
 13743  8639  8672    1
 13744  8639  8678    1
 13745  8640  5764   un
 13746  8640  5767   un
 13747  8640  8673    1
 13748  8640  8681    1
 13749  8640  8685    1
 13750  8641  7724   un
 13751  8641  8686    1
 13752  5447  8682    1
 13753  8328  8683    1
 13754  8642  8646   un
 13755  8642  8652   un
 13756  8642  8676    1
 13757  8330  8644   un
 13758  8330  8684    1
 13759  8643  8647   un
 13760  8643  8674    1
 13761  8643  8680    1
 13762  8016  8677    1
 13763  8644  8336   un
 13764  8644  8684    1
 13765  5764  8685    1
 13766  8645  8648   un
 13767  8645  8678    1
 13768  8646  8649   un
 13769  8646  8675    1
 13770  8646  8676    1
 13771  8647  8650   un
 13772  8647  8674    1
 13773  5767  8673    1
 13774  8648  8651   un
 13775  8649  8652   un
 13776  8649  8675    1
 13777  8651  8672    1
 13778  5462  8682    1
 13779  8343  8671    1
 13780  6057  8696   un
 13781  6057  8714   un
 13782  6057  8738   un
 13783  6057  8985    1
 13784  8638  8715   un
 13785  8638  8930    1
 13786  8638  8946   un
 13787  8638  8955   un
 13788  8638  8961   un
 13789  8638  8989    1
 13790  8687  8688   un
 13791  8687  8689   un
 13792  8687  8693   un
 13793  8687  8695   un
 13794  8687  8697   un
 13795  8687  8716   un
 13796  8687  8739   un
 13797  8687  8758   un
 13798  8687  8920    1
 13799  8687  8929    1
 13800  8687  8931    1
 13801  8687  8932    1
 13802  6059  8717   un
 13803  6059  8759   un
 13804  6059  8941   un
 13805  6059  8956   un
 13806  6059  8962   un
 13807  6059  8984    1
 13808  6059  8990    1
 13809  6061  8698   un
 13810  6061  8718   un
 13811  6061  8740   un
 13812  6062  8719   un
 13813  6062  8937   un
 13814  6062  8957   un
 13815  6062  8963   un
 13816  6062  8986    1
 13817  8688  8689   un
 13818  8688  8691   un
 13819  8688  8695   un
 13820  8688  8699   un
 13821  8688  8720   un
 13822  8688  8741   un
 13823  8688  8762   un
 13824  8688  8923    1
 13825  8688  8927    1
 13826  8688  8931    1
 13827  8688  8932    1
 13828  8014  8721   un
 13829  8014  8763   un
 13830  8014  8945   un
 13831  8014  8958   un
 13832  8014  8964   un
 13833  8014  8980    1
 13834  8014  8988    1
 13835  8016  8700   un
 13836  8016  8722   un
 13837  8016  8742   un
 13838  8017  8723   un
 13839  8017  8928    1
 13840  8017  8942   un
 13841  8017  8959   un
 13842  8017  8965   un
 13843  8017  8991    1
 13844  8689  8691   un
 13845  8689  8693   un
 13846  8689  8701   un
 13847  8689  8724   un
 13848  8689  8743   un
 13849  8689  8766   un
 13850  8689  8926    1
 13851  8689  8927    1
 13852  8689  8929    1
 13853  8689  8932    1
 13854  8646  8725   un
 13855  8646  8767   un
 13856  8646  8938   un
 13857  8646  8960   un
 13858  8646  8966   un
 13859  8646  8982    1
 13860  8646  8987    1
 13861  8690  8702   un
 13862  8690  8726   un
 13863  8690  8744   un
 13864  8690  8922    1
 13865  8690  8933    1
 13866  8690  8943   un
 13867  8690  8948   un
 13868  8690  8951   un
 13869  8690  8954   un
 13870  8690  8967   un
 13871  8690  8978    1
 13872  8690  8979    1
 13873  8019  8727   un
 13874  8019  8945   un
 13875  8019  8968   un
 13876  8019  8977    1
 13877  8019  8980    1
 13878  8691  8693   un
 13879  8691  8695   un
 13880  8691  8704   un
 13881  8691  8728   un
 13882  8691  8746   un
 13883  8691  8768   un
 13884  8691  8923    1
 13885  8691  8926    1
 13886  8691  8927    1
 13887  8691  8935    1
 13888  8020  8729   un
 13889  8020  8769   un
 13890  8020  8921    1
 13891  8020  8928    1
 13892  8020  8942   un
 13893  8692  8706   un
 13894  8692  8730   un
 13895  8692  8748   un
 13896  8692  8925    1
 13897  8692  8936    1
 13898  8692  8940   un
 13899  8692  8947   un
 13900  8692  8950   un
 13901  8692  8953   un
 13902  8692  8969   un
 13903  8692  8974    1
 13904  8692  8981    1
 13905  8649  8731   un
 13906  8649  8938   un
 13907  8649  8970   un
 13908  8649  8973    1
 13909  8649  8982    1
 13910  8693  8695   un
 13911  8693  8708   un
 13912  8693  8732   un
 13913  8693  8750   un
 13914  8693  8770   un
 13915  8693  8920    1
 13916  8693  8926    1
 13917  8693  8929    1
 13918  8693  8935    1
 13919  8650  8733   un
 13920  8650  8771   un
 13921  8650  8924    1
 13922  8650  8930    1
 13923  8650  8946   un
 13924  8694  8710   un
 13925  8694  8734   un
 13926  8694  8752   un
 13927  8694  8919    1
 13928  8694  8934    1
 13929  8694  8939   un
 13930  8694  8944   un
 13931  8694  8949   un
 13932  8694  8952   un
 13933  8694  8971   un
 13934  8694  8976    1
 13935  8694  8983    1
 13936  6072  8735   un
 13937  6072  8941   un
 13938  6072  8972   un
 13939  6072  8975    1
 13940  6072  8984    1
 13941  8695  8712   un
 13942  8695  8736   un
 13943  8695  8754   un
 13944  8695  8772   un
 13945  8695  8920    1
 13946  8695  8923    1
 13947  8695  8931    1
 13948  8695  8935    1
 13949  6073  8737   un
 13950  6073  8773   un
 13951  6073  8918    1
 13952  6073  8937   un
 13953  8696  8846   un
 13954  8025  8847   un
 13955  8697  8848   un
 13956  8026  8849   un
 13957  8698  8850   un
 13958  8655  8851   un
 13959  8699  8852   un
 13960  8656  8853   un
 13961  8700  8854   un
 13962  6078  8855   un
 13963  8701  8856   un
 13964  6079  8857   un
 13965  8702  8858   un
 13966  8703  8859   un
 13967  8703  8949   un
 13968  8704  8860   un
 13969  8705  8861   un
 13970  8705  8950   un
 13971  8706  8862   un
 13972  8707  8863   un
 13973  8707  8951   un
 13974  8708  8864   un
 13975  8709  8865   un
 13976  8709  8952   un
 13977  8710  8866   un
 13978  8711  8867   un
 13979  8711  8953   un
 13980  8712  8868   un
 13981  8713  8869   un
 13982  8713  8954   un
 13983  8714  8774   un
 13984  8715  8775   un
 13985  8716  8776   un
 13986  8717  8777   un
 13987  8718  8778   un
 13988  8719  8779   un
 13989  8720  8780   un
 13990  8721  8781   un
 13991  8722  8782   un
 13992  8723  8783   un
 13993  8724  8784   un
 13994  8725  8785   un
 13995  8726  8786   un
 13996  8727  8787   un
 13997  8728  8788   un
 13998  8729  8789   un
 13999  8730  8790   un
 14000  8731  8791   un
 14001  8732  8792   un
 14002  8733  8793   un
 14003  8734  8794   un
 14004  8735  8795   un
 14005  8736  8796   un
 14006  8737  8797   un
 14007  8738  8857   un
 14008  8031  8854   un
 14009  8739  8856   un
 14010  8032  8855   un
 14011  8740  8849   un
 14012  8661  8846   un
 14013  8741  8848   un
 14014  8662  8847   un
 14015  8742  8853   un
 14016  6084  8850   un
 14017  8743  8852   un
 14018  6085  8851   un
 14019  8744  8869   un
 14020  8745  8866   un
 14021  8745  8949   un
 14022  8746  8868   un
 14023  8747  8867   un
 14024  8747  8950   un
 14025  8748  8861   un
 14026  8749  8858   un
 14027  8749  8951   un
 14028  8750  8860   un
 14029  8751  8859   un
 14030  8751  8952   un
 14031  8752  8865   un
 14032  8753  8862   un
 14033  8753  8953   un
 14034  8754  8864   un
 14035  8755  8863   un
 14036  8755  8954   un
 14037  8756  8797   un
 14038  8756  8937   un
 14039  8757  8794   un
 14040  8757  8939   un
 14041  8758  8796   un
 14042  8759  8795   un
 14043  8760  8789   un
 14044  8760  8942   un
 14045  8761  8786   un
 14046  8761  8943   un
 14047  8762  8788   un
 14048  8763  8787   un
 14049  8764  8793   un
 14050  8764  8946   un
 14051  8765  8790   un
 14052  8765  8947   un
 14053  8766  8792   un
 14054  8767  8791   un
 14055  8665  8785   un
 14056  8666  8782   un
 14057  8768  8784   un
 14058  8769  8783   un
 14059  6088  8777   un
 14060  6089  8774   un
 14061  8770  8776   un
 14062  8771  8775   un
 14063  8041  8781   un
 14064  8042  8778   un
 14065  8772  8780   un
 14066  8773  8779   un
 14067  8774  8798   un
 14068  8775  8799   un
 14069  8776  8800   un
 14070  8777  8801   un
 14071  8778  8802   un
 14072  8779  8803   un
 14073  8780  8804   un
 14074  8781  8805   un
 14075  8782  8806   un
 14076  8783  8807   un
 14077  8784  8808   un
 14078  8785  8809   un
 14079  8786  8810   un
 14080  8787  8811   un
 14081  8788  8812   un
 14082  8789  8813   un
 14083  8790  8814   un
 14084  8791  8815   un
 14085  8792  8816   un
 14086  8793  8817   un
 14087  8794  8818   un
 14088  8795  8819   un
 14089  8796  8820   un
 14090  8797  8821   un
 14091  8798  8799   un
 14092  8798  8822    1
 14093  8799  8823    1
 14094  8800  8801   un
 14095  8800  8824    1
 14096  8801  8825    1
 14097  8802  8803   un
 14098  8802  8826    1
 14099  8803  8827    1
 14100  8804  8805   un
 14101  8804  8828    1
 14102  8805  8829    1
 14103  8806  8807   un
 14104  8806  8830    1
 14105  8807  8831    1
 14106  8808  8809   un
 14107  8808  8832    1
 14108  8809  8833    1
 14109  8810  8811   un
 14110  8810  8834    1
 14111  8811  8835    1
 14112  8812  8813   un
 14113  8812  8836    1
 14114  8813  8837    1
 14115  8814  8815   un
 14116  8814  8838    1
 14117  8815  8839    1
 14118  8816  8817   un
 14119  8816  8840    1
 14120  8817  8841    1
 14121  8818  8819   un
 14122  8818  8842    1
 14123  8819  8843    1
 14124  8820  8821   un
 14125  8820  8844    1
 14126  8821  8845    1
 14127  8846  8870   un
 14128  8847  8871   un
 14129  8848  8872   un
 14130  8849  8873   un
 14131  8850  8874   un
 14132  8851  8875   un
 14133  8852  8876   un
 14134  8853  8877   un
 14135  8854  8878   un
 14136  8855  8879   un
 14137  8856  8880   un
 14138  8857  8881   un
 14139  8858  8882   un
 14140  8859  8883   un
 14141  8860  8884   un
 14142  8861  8885   un
 14143  8862  8886   un
 14144  8863  8887   un
 14145  8864  8888   un
 14146  8865  8889   un
 14147  8866  8890   un
 14148  8867  8891   un
 14149  8868  8892   un
 14150  8869  8893   un
 14151  8870  8871   un
 14152  8870  8894    1
 14153  8871  8895    1
 14154  8872  8873   un
 14155  8872  8896    1
 14156  8873  8897    1
 14157  8874  8875   un
 14158  8874  8898    1
 14159  8875  8899    1
 14160  8876  8877   un
 14161  8876  8900    1
 14162  8877  8901    1
 14163  8878  8879   un
 14164  8878  8902    1
 14165  8879  8903    1
 14166  8880  8881   un
 14167  8880  8904    1
 14168  8881  8905    1
 14169  8882  8883   un
 14170  8882  8906    1
 14171  8883  8907    1
 14172  8884  8885   un
 14173  8884  8908    1
 14174  8885  8909    1
 14175  8886  8887   un
 14176  8886  8910    1
 14177  8887  8911    1
 14178  8888  8889   un
 14179  8888  8912    1
 14180  8889  8913    1
 14181  8890  8891   un
 14182  8890  8914    1
 14183  8891  8915    1
 14184  8892  8893   un
 14185  8892  8916    1
 14186  8893  8917    1
 14187  8918  8937    1
 14188  8918  6070    1
 14189  8919  8939    1
 14190  8919  8952    1
 14191  8921  8942    1
 14192  8921  8023    1
 14193  8922  8943    1
 14194  8922  8954    1
 14195  8924  8946    1
 14196  8924  8647    1
 14197  8925  8947    1
 14198  8925  8950    1
 14199  8928  8942    1
 14200  8930  8946    1
 14201  8933  8951    1
 14202  8933  8954    1
 14203  8934  8949    1
 14204  8934  8952    1
 14205  8936  8950    1
 14206  8936  8953    1
 14207  8937  6067   un
 14208  8937  6070   un
 14209  8937  8986    1
 14210  8938  8642   un
 14211  8938  8652   un
 14212  8938  8973    1
 14213  8938  8982    1
 14214  8938  8987    1
 14215  8010  8945   un
 14216  8010  8988    1
 14217  8939  8944   un
 14218  8939  8952   un
 14219  8939  8983    1
 14220  8011  8942   un
 14221  8011  8991    1
 14222  8940  8947   un
 14223  8940  8953   un
 14224  8940  8974    1
 14225  8940  8981    1
 14226  8941  6066   un
 14227  8941  6069   un
 14228  8941  8975    1
 14229  8941  8984    1
 14230  8941  8990    1
 14231  8942  8023   un
 14232  8942  8991    1
 14233  5761  8985    1
 14234  8642  8987    1
 14235  8943  8948   un
 14236  8943  8954   un
 14237  8943  8979    1
 14238  8643  8946   un
 14239  8643  8989    1
 14240  8944  8949   un
 14241  8944  8976    1
 14242  8944  8983    1
 14243  8945  8022   un
 14244  8945  8977    1
 14245  8945  8980    1
 14246  8945  8988    1
 14247  8946  8647   un
 14248  8946  8989    1
 14249  6066  8990    1
 14250  8947  8950   un
 14251  8947  8981    1
 14252  6067  8986    1
 14253  8948  8951   un
 14254  8948  8978    1
 14255  8948  8979    1
 14256  8949  8952   un
 14257  8949  8976    1
 14258  6069  8975    1
 14259  8950  8953   un
 14260  8951  8954   un
 14261  8951  8978    1
 14262  8022  8977    1
 14263  8953  8974    1
 14264  5771  8985    1
 14265  8652  8973    1
@<TRIPOS>SUBSTRUCTURE
     1 RES1        1 GROUP             0 ****  ****    0  
@<TRIPOS>CRYSIN
   17.8348   17.8348   17.8348   90.0000   90.0000   90.0000     1     1
