@<TRIPOS>MOLECULE
MOL
   594   988     1     0     0
SMALL
NO_CHARGES
****
ITC 2023. ALL RIGHTS RESERVED.

@<TRIPOS>ATOM
     1 Zr17    17.6229  15.3763  26.5537   Zr        1 RES1   0.0000
     2 O106    16.1993  16.6809  25.3878   O3        1 RES1   0.0000
     3 O160    16.4348  16.4348  28.1522   O3        1 RES1   0.0000
     4 Zr4     20.2933  17.6363  26.5403   Zr        1 RES1   0.0000
     5 Zr10    17.6363  18.0467  24.2937   Zr        1 RES1   0.0000
     6 Zr16    15.3763  18.0333  26.9641   Zr        1 RES1   0.0000
     7 Zr22    18.0333  17.6229  29.2107   Zr        1 RES1   0.0000
     8 O100    19.1992  16.1993  27.9061   O3        1 RES1   0.0000
     9 O113    18.9887  16.4704  25.1167   O3        1 RES1   0.0000
    10 Zr13    15.3763  26.5537  17.6229   Zr        1 RES1   0.0000
    11 O102    16.6809  25.3878  16.1993   O3        1 RES1   0.0000
    12 O157    16.4348  28.1522  16.4348   O3        1 RES1   0.0000
    13 Zr6     18.0467  24.2937  17.6363   Zr        1 RES1   0.0000
    14 Zr12    17.6363  26.5403  20.2933   Zr        1 RES1   0.0000
    15 Zr18    17.6229  29.2107  18.0333   Zr        1 RES1   0.0000
    16 Zr24    18.0333  26.9641  15.3763   Zr        1 RES1   0.0000
    17 O108    16.1993  27.9061  19.1992   O3        1 RES1   0.0000
    18 O109    16.4704  25.1167  18.9887   O3        1 RES1   0.0000
    19 Zr13    15.3763  26.5537  35.4577   Zr        1 RES1   0.0000
    20 Zr17    17.6229  33.2111  26.5537   Zr        1 RES1   0.0000
    21 O17     17.6921  31.9421  28.3841   Oco2      1 RES1   0.0000
    22 O18     17.6921  30.4797  34.0377   Oco2      1 RES1   0.0000
    23 O41     17.3961  32.2739  24.5300   Oco2      1 RES1   0.0000
    24 O42     17.3961  30.1479  20.0570   Oco2      1 RES1   0.0000
    25 O70     17.9650  33.4171  30.1337   Oco2      1 RES1   0.0000
    26 O72     17.9650  29.0047  32.2881   Oco2      1 RES1   0.0000
    27 O82     17.4085  34.0538  23.0283   Oco2      1 RES1   0.0000
    28 O84     17.4085  28.3680  21.5587   Oco2      1 RES1   0.0000
    29 C17     17.4068  32.8089  23.3796   C.2       1 RES1   0.0000
    30 C18     17.4068  29.6129  21.2074   C.2       1 RES1   0.0000
    31 C41     17.4014  31.8494  22.1954   C.2       1 RES1   0.0000
    32 C42     17.4014  30.5724  22.3916   C.2       1 RES1   0.0000
    33 H17     17.3996  32.1829  21.3269   H         1 RES1   0.0000
    34 H18     17.3996  30.2389  23.2601   H         1 RES1   0.0000
    35 C65     17.8348  32.2703  29.6093   C.2       1 RES1   0.0000
    36 C66     17.8348  30.1515  32.8125   C.2       1 RES1   0.0000
    37 C89     17.8330  31.0914  30.5599   C.2       1 RES1   0.0000
    38 C90     17.8330  31.3304  31.8619   C.2       1 RES1   0.0000
    39 H41     17.8330  30.2193  30.2371   H         1 RES1   0.0000
    40 H42     17.8330  32.2025  32.1847   H         1 RES1   0.0000
    41 O101    16.6809  19.1992  28.3877   O3        1 RES1   0.0000
    42 O102    16.6809  25.3878  34.0341   O3        1 RES1   0.0000
    43 O106    16.1993  34.5157  25.3878   O3        1 RES1   0.0000
    44 O112    16.4704  19.4703  25.5983   O3        1 RES1   0.0000
    45 O157    16.4348  28.1522  34.2696   O3        1 RES1   0.0000
    46 O160    16.4348  34.2696  28.1522   O3        1 RES1   0.0000
    47 Zr1     20.2933  26.9507  18.0467   Zr        1 RES1   0.0000
    48 Zr4     20.2933  35.4711  26.5403   Zr        1 RES1   0.0000
    49 Zr5     18.0467  20.2933  26.9507   Zr        1 RES1   0.0000
    50 Zr6     18.0467  24.2937  35.4711   Zr        1 RES1   0.0000
    51 Zr10    17.6363  35.8815  24.2937   Zr        1 RES1   0.0000
    52 Zr12    17.6363  26.5403  38.1281   Zr        1 RES1   0.0000
    53 Zr16    15.3763  35.8681  26.9641   Zr        1 RES1   0.0000
    54 Zr18    17.6229  29.2107  35.8681   Zr        1 RES1   0.0000
    55 Zr22    18.0333  35.4577  29.2107   Zr        1 RES1   0.0000
    56 Zr24    18.0333  26.9641  33.2111   Zr        1 RES1   0.0000
    57 O10     19.4667  17.9775  23.0247   Oco2      1 RES1   0.0000
    58 O12     19.4667  26.6095  21.5623   Oco2      1 RES1   0.0000
    59 O58     17.7046  20.0873  23.3707   Oco2      1 RES1   0.0000
    60 O60     17.7046  24.4997  21.2163   Oco2      1 RES1   0.0000
    61 O89     19.4506  31.9457  26.3259   Oco2      1 RES1   0.0000
    62 O90     19.4506  30.4761  18.2611   Oco2      1 RES1   0.0000
    63 O97     19.1992  28.3877  16.6809   O3        1 RES1   0.0000
    64 O100    19.1992  34.0341  27.9061   O3        1 RES1   0.0000
    65 O108    16.1993  27.9061  37.0340   O3        1 RES1   0.0000
    66 O109    16.4704  25.1167  36.8235   O3        1 RES1   0.0000
    67 O113    18.9887  34.3052  25.1167   O3        1 RES1   0.0000
    68 O114    18.9887  28.1166  19.4703   O3        1 RES1   0.0000
    69 O153    19.2348  25.3522  19.2348   O3        1 RES1   0.0000
    70 O156    19.2348  19.2348  25.3522   O3        1 RES1   0.0000
    71 Zr1     20.2933  26.9507  35.8815   Zr        1 RES1   0.0000
    72 O90     19.4506  30.4761  36.0959   Oco2      1 RES1   0.0000
    73 O97     19.1992  28.3877  34.5157   O3        1 RES1   0.0000
    74 O114    18.9887  28.1166  37.3051   O3        1 RES1   0.0000
    75 O153    19.2348  25.3522  37.0696   O3        1 RES1   0.0000
    76 O101    16.6809  37.0340  28.3877   O3        1 RES1   0.0000
    77 O112    16.4704  37.3051  25.5983   O3        1 RES1   0.0000
    78 Zr5     18.0467  38.1281  26.9507   Zr        1 RES1   0.0000
    79 O10     19.4667  35.8123  23.0247   Oco2      1 RES1   0.0000
    80 O156    19.2348  37.0696  25.3522   O3        1 RES1   0.0000
    81 Zr21    26.5537  17.6229  15.3763   Zr        1 RES1   0.0000
    82 O98     25.3878  16.1993  16.6809   O3        1 RES1   0.0000
    83 O158    28.1522  16.4348  16.4348   O3        1 RES1   0.0000
    84 Zr2     24.2937  17.6363  18.0467   Zr        1 RES1   0.0000
    85 Zr8     26.5403  20.2933  17.6363   Zr        1 RES1   0.0000
    86 Zr14    29.2107  18.0333  17.6229   Zr        1 RES1   0.0000
    87 Zr20    26.9641  15.3763  18.0333   Zr        1 RES1   0.0000
    88 O104    27.9061  19.1992  16.1993   O3        1 RES1   0.0000
    89 O117    25.1167  18.9887  16.4704   O3        1 RES1   0.0000
    90 Zr17    35.4577  15.3763  26.5537   Zr        1 RES1   0.0000
    91 Zr21    26.5537  17.6229  33.2111   Zr        1 RES1   0.0000
    92 O21     28.3841  17.6921  31.9421   Oco2      1 RES1   0.0000
    93 O22     34.0377  17.6921  30.4797   Oco2      1 RES1   0.0000
    94 O45     24.5300  17.3961  32.2739   Oco2      1 RES1   0.0000
    95 O46     20.0570  17.3961  30.1479   Oco2      1 RES1   0.0000
    96 O62     30.1337  17.9650  33.4171   Oco2      1 RES1   0.0000
    97 O64     32.2881  17.9650  29.0047   Oco2      1 RES1   0.0000
    98 O74     23.0283  17.4085  34.0538   Oco2      1 RES1   0.0000
    99 O76     21.5587  17.4085  28.3680   Oco2      1 RES1   0.0000
   100 C21     23.3796  17.4068  32.8089   C.2       1 RES1   0.0000
   101 C22     21.2074  17.4068  29.6129   C.2       1 RES1   0.0000
   102 C45     22.1954  17.4014  31.8494   C.2       1 RES1   0.0000
   103 C46     22.3916  17.4014  30.5724   C.2       1 RES1   0.0000
   104 H21     21.3269  17.3996  32.1829   H         1 RES1   0.0000
   105 H22     23.2601  17.3996  30.2389   H         1 RES1   0.0000
   106 C69     29.6093  17.8348  32.2703   C.2       1 RES1   0.0000
   107 C70     32.8125  17.8348  30.1515   C.2       1 RES1   0.0000
   108 C93     30.5599  17.8330  31.0914   C.2       1 RES1   0.0000
   109 C94     31.8619  17.8330  31.3304   C.2       1 RES1   0.0000
   110 H45     30.2371  17.8330  30.2193   H         1 RES1   0.0000
   111 H46     32.1847  17.8330  32.2025   H         1 RES1   0.0000
   112 O98     25.3878  16.1993  34.5157   O3        1 RES1   0.0000
   113 O105    28.3877  16.6809  19.1992   O3        1 RES1   0.0000
   114 O106    34.0341  16.6809  25.3878   O3        1 RES1   0.0000
   115 O116    25.5983  16.4704  19.4703   O3        1 RES1   0.0000
   116 O158    28.1522  16.4348  34.2696   O3        1 RES1   0.0000
   117 O160    34.2696  16.4348  28.1522   O3        1 RES1   0.0000
   118 Zr2     24.2937  17.6363  35.8815   Zr        1 RES1   0.0000
   119 Zr4     38.1281  17.6363  26.5403   Zr        1 RES1   0.0000
   120 Zr8     26.5403  20.2933  35.4711   Zr        1 RES1   0.0000
   121 Zr9     26.9507  18.0467  20.2933   Zr        1 RES1   0.0000
   122 Zr10    35.4711  18.0467  24.2937   Zr        1 RES1   0.0000
   123 Zr14    29.2107  18.0333  35.4577   Zr        1 RES1   0.0000
   124 Zr16    33.2111  18.0333  26.9641   Zr        1 RES1   0.0000
   125 Zr20    26.9641  15.3763  35.8681   Zr        1 RES1   0.0000
   126 Zr22    35.8681  17.6229  29.2107   Zr        1 RES1   0.0000
   127 O2      23.0247  19.4667  17.9775   Oco2      1 RES1   0.0000
   128 O4      21.5623  19.4667  26.6095   Oco2      1 RES1   0.0000
   129 O50     23.3707  17.7046  20.0873   Oco2      1 RES1   0.0000
   130 O52     21.2163  17.7046  24.4997   Oco2      1 RES1   0.0000
   131 O93     26.3259  19.4506  31.9457   Oco2      1 RES1   0.0000
   132 O94     18.2611  19.4506  30.4761   Oco2      1 RES1   0.0000
   133 O100    37.0340  16.1993  27.9061   O3        1 RES1   0.0000
   134 O104    27.9061  19.1992  34.0341   O3        1 RES1   0.0000
   135 O113    36.8235  16.4704  25.1167   O3        1 RES1   0.0000
   136 O117    25.1167  18.9887  34.3052   O3        1 RES1   0.0000
   137 O118    19.4703  18.9887  28.1166   O3        1 RES1   0.0000
   138 O154    25.3522  19.2348  19.2348   O3        1 RES1   0.0000
   139 O105    28.3877  16.6809  37.0340   O3        1 RES1   0.0000
   140 O116    25.5983  16.4704  37.3051   O3        1 RES1   0.0000
   141 Zr9     26.9507  18.0467  38.1281   Zr        1 RES1   0.0000
   142 O2      23.0247  19.4667  35.8123   Oco2      1 RES1   0.0000
   143 O154    25.3522  19.2348  37.0696   O3        1 RES1   0.0000
   144 Zr13    33.2111  26.5537  17.6229   Zr        1 RES1   0.0000
   145 Zr21    26.5537  35.4577  15.3763   Zr        1 RES1   0.0000
   146 O13     31.9421  28.3841  17.6921   Oco2      1 RES1   0.0000
   147 O14     30.4797  34.0377  17.6921   Oco2      1 RES1   0.0000
   148 O37     32.2739  24.5300  17.3961   Oco2      1 RES1   0.0000
   149 O38     30.1479  20.0570  17.3961   Oco2      1 RES1   0.0000
   150 O66     33.4171  30.1337  17.9650   Oco2      1 RES1   0.0000
   151 O68     29.0047  32.2881  17.9650   Oco2      1 RES1   0.0000
   152 O78     34.0538  23.0283  17.4085   Oco2      1 RES1   0.0000
   153 O80     28.3680  21.5587  17.4085   Oco2      1 RES1   0.0000
   154 C13     32.8089  23.3796  17.4068   C.2       1 RES1   0.0000
   155 C14     29.6129  21.2074  17.4068   C.2       1 RES1   0.0000
   156 C37     31.8494  22.1954  17.4014   C.2       1 RES1   0.0000
   157 C38     30.5724  22.3916  17.4014   C.2       1 RES1   0.0000
   158 H13     32.1829  21.3269  17.3996   H         1 RES1   0.0000
   159 H14     30.2389  23.2601  17.3996   H         1 RES1   0.0000
   160 C61     32.2703  29.6093  17.8348   C.2       1 RES1   0.0000
   161 C62     30.1515  32.8125  17.8348   C.2       1 RES1   0.0000
   162 C85     31.0914  30.5599  17.8330   C.2       1 RES1   0.0000
   163 C86     31.3304  31.8619  17.8330   C.2       1 RES1   0.0000
   164 H37     30.2193  30.2371  17.8330   H         1 RES1   0.0000
   165 H38     32.2025  32.1847  17.8330   H         1 RES1   0.0000
   166 O98     25.3878  34.0341  16.6809   O3        1 RES1   0.0000
   167 O102    34.5157  25.3878  16.1993   O3        1 RES1   0.0000
   168 O157    34.2696  28.1522  16.4348   O3        1 RES1   0.0000
   169 O158    28.1522  34.2696  16.4348   O3        1 RES1   0.0000
   170 Zr2     24.2937  35.4711  18.0467   Zr        1 RES1   0.0000
   171 Zr6     35.8815  24.2937  17.6363   Zr        1 RES1   0.0000
   172 Zr8     26.5403  38.1281  17.6363   Zr        1 RES1   0.0000
   173 Zr12    35.4711  26.5403  20.2933   Zr        1 RES1   0.0000
   174 Zr14    29.2107  35.8681  17.6229   Zr        1 RES1   0.0000
   175 Zr18    35.4577  29.2107  18.0333   Zr        1 RES1   0.0000
   176 Zr20    26.9641  33.2111  18.0333   Zr        1 RES1   0.0000
   177 Zr24    35.8681  26.9641  15.3763   Zr        1 RES1   0.0000
   178 O6      17.9775  23.0247  19.4667   Oco2      1 RES1   0.0000
   179 O8      26.6095  21.5623  19.4667   Oco2      1 RES1   0.0000
   180 O54     20.0873  23.3707  17.7046   Oco2      1 RES1   0.0000
   181 O56     24.4997  21.2163  17.7046   Oco2      1 RES1   0.0000
   182 O85     31.9457  26.3259  19.4506   Oco2      1 RES1   0.0000
   183 O86     30.4761  18.2611  19.4506   Oco2      1 RES1   0.0000
   184 O104    27.9061  37.0340  16.1993   O3        1 RES1   0.0000
   185 O108    34.0341  27.9061  19.1992   O3        1 RES1   0.0000
   186 O109    34.3052  25.1167  18.9887   O3        1 RES1   0.0000
   187 O110    28.1166  19.4703  18.9887   O3        1 RES1   0.0000
   188 O117    25.1167  36.8235  16.4704   O3        1 RES1   0.0000
   189 Zr3     24.2937  26.9507  26.5403   Zr        1 RES1   0.0000
   190 Zr7     26.5403  24.2937  26.9507   Zr        1 RES1   0.0000
   191 Zr11    26.9507  26.5403  24.2937   Zr        1 RES1   0.0000
   192 Zr13    33.2111  26.5537  35.4577   Zr        1 RES1   0.0000
   193 Zr15    29.2107  26.5537  26.9641   Zr        1 RES1   0.0000
   194 Zr17    35.4577  33.2111  26.5537   Zr        1 RES1   0.0000
   195 Zr19    26.9641  29.2107  26.5537   Zr        1 RES1   0.0000
   196 Zr21    26.5537  35.4577  33.2111   Zr        1 RES1   0.0000
   197 Zr23    26.5537  26.9641  29.2107   Zr        1 RES1   0.0000
   198 O1      21.5623  25.1203  17.9775   Oco2      1 RES1   0.0000
   199 O3      23.0247  25.1203  26.6095   Oco2      1 RES1   0.0000
   200 O5      17.9775  21.5623  25.1203   Oco2      1 RES1   0.0000
   201 O7      26.6095  23.0247  25.1203   Oco2      1 RES1   0.0000
   202 O9      25.1203  17.9775  21.5623   Oco2      1 RES1   0.0000
   203 O11     25.1203  26.6095  23.0247   Oco2      1 RES1   0.0000
   204 O13     31.9421  28.3841  35.5269   Oco2      1 RES1   0.0000
   205 O14     30.4797  34.0377  35.5269   Oco2      1 RES1   0.0000
   206 O15     30.4797  28.3841  26.8949   Oco2      1 RES1   0.0000
   207 O16     31.9421  34.0377  26.8949   Oco2      1 RES1   0.0000
   208 O17     35.5269  31.9421  28.3841   Oco2      1 RES1   0.0000
   209 O18     35.5269  30.4797  34.0377   Oco2      1 RES1   0.0000
   210 O19     26.8949  30.4797  28.3841   Oco2      1 RES1   0.0000
   211 O20     26.8949  31.9421  34.0377   Oco2      1 RES1   0.0000
   212 O21     28.3841  35.5269  31.9421   Oco2      1 RES1   0.0000
   213 O22     34.0377  35.5269  30.4797   Oco2      1 RES1   0.0000
   214 O23     28.3841  26.8949  30.4797   Oco2      1 RES1   0.0000
   215 O24     34.0377  26.8949  31.9421   Oco2      1 RES1   0.0000
   216 O25     21.2305  28.9744  18.2735   Oco2      1 RES1   0.0000
   217 O26     23.3565  33.4474  18.2735   Oco2      1 RES1   0.0000
   218 O27     23.3565  28.9744  26.3135   Oco2      1 RES1   0.0000
   219 O28     21.2305  33.4474  26.3135   Oco2      1 RES1   0.0000
   220 O29     18.2735  21.2305  28.9744   Oco2      1 RES1   0.0000
   221 O30     18.2735  23.3565  33.4474   Oco2      1 RES1   0.0000
   222 O31     26.3135  23.3565  28.9744   Oco2      1 RES1   0.0000
   223 O32     26.3135  21.2305  33.4474   Oco2      1 RES1   0.0000
   224 O33     28.9744  18.2735  21.2305   Oco2      1 RES1   0.0000
   225 O34     33.4474  18.2735  23.3565   Oco2      1 RES1   0.0000
   226 O35     28.9744  26.3135  23.3565   Oco2      1 RES1   0.0000
   227 O36     33.4474  26.3135  21.2305   Oco2      1 RES1   0.0000
   228 O37     32.2739  24.5300  35.2309   Oco2      1 RES1   0.0000
   229 O38     30.1479  20.0570  35.2309   Oco2      1 RES1   0.0000
   230 O39     30.1479  24.5300  27.1909   Oco2      1 RES1   0.0000
   231 O40     32.2739  20.0570  27.1909   Oco2      1 RES1   0.0000
   232 O41     35.2309  32.2739  24.5300   Oco2      1 RES1   0.0000
   233 O42     35.2309  30.1479  20.0570   Oco2      1 RES1   0.0000
   234 O43     27.1909  30.1479  24.5300   Oco2      1 RES1   0.0000
   235 O44     27.1909  32.2739  20.0570   Oco2      1 RES1   0.0000
   236 O45     24.5300  35.2309  32.2739   Oco2      1 RES1   0.0000
   237 O46     20.0570  35.2309  30.1479   Oco2      1 RES1   0.0000
   238 O47     24.5300  27.1909  30.1479   Oco2      1 RES1   0.0000
   239 O48     20.0570  27.1909  32.2739   Oco2      1 RES1   0.0000
   240 O49     21.2163  26.8824  20.0873   Oco2      1 RES1   0.0000
   241 O51     23.3707  26.8824  24.4997   Oco2      1 RES1   0.0000
   242 O53     20.0873  21.2163  26.8824   Oco2      1 RES1   0.0000
   243 O55     24.4997  23.3707  26.8824   Oco2      1 RES1   0.0000
   244 O57     26.8824  20.0873  21.2163   Oco2      1 RES1   0.0000
   245 O59     26.8824  24.4997  23.3707   Oco2      1 RES1   0.0000
   246 O61     32.2881  26.6220  33.4171   Oco2      1 RES1   0.0000
   247 O62     30.1337  35.7998  33.4171   Oco2      1 RES1   0.0000
   248 O63     30.1337  26.6220  29.0047   Oco2      1 RES1   0.0000
   249 O64     32.2881  35.7998  29.0047   Oco2      1 RES1   0.0000
   250 O65     33.4171  32.2881  26.6220   Oco2      1 RES1   0.0000
   251 O66     33.4171  30.1337  35.7998   Oco2      1 RES1   0.0000
   252 O67     29.0047  30.1337  26.6220   Oco2      1 RES1   0.0000
   253 O68     29.0047  32.2881  35.7998   Oco2      1 RES1   0.0000
   254 O69     26.6220  33.4171  32.2881   Oco2      1 RES1   0.0000
   255 O70     35.7998  33.4171  30.1337   Oco2      1 RES1   0.0000
   256 O71     26.6220  29.0047  30.1337   Oco2      1 RES1   0.0000
   257 O72     35.7998  29.0047  32.2881   Oco2      1 RES1   0.0000
   258 O73     21.5587  27.1785  34.0538   Oco2      1 RES1   0.0000
   259 O74     23.0283  35.2433  34.0538   Oco2      1 RES1   0.0000
   260 O75     23.0283  27.1785  28.3680   Oco2      1 RES1   0.0000
   261 O76     21.5587  35.2433  28.3680   Oco2      1 RES1   0.0000
   262 O77     34.0538  21.5587  27.1785   Oco2      1 RES1   0.0000
   263 O78     34.0538  23.0283  35.2433   Oco2      1 RES1   0.0000
   264 O79     28.3680  23.0283  27.1785   Oco2      1 RES1   0.0000
   265 O80     28.3680  21.5587  35.2433   Oco2      1 RES1   0.0000
   266 O81     27.1785  34.0538  21.5587   Oco2      1 RES1   0.0000
   267 O82     35.2433  34.0538  23.0283   Oco2      1 RES1   0.0000
   268 O83     27.1785  28.3680  23.0283   Oco2      1 RES1   0.0000
   269 O84     35.2433  28.3680  21.5587   Oco2      1 RES1   0.0000
   270 O87     30.4761  26.3259  25.1364   Oco2      1 RES1   0.0000
   271 O88     31.9457  18.2611  25.1364   Oco2      1 RES1   0.0000
   272 O91     25.1364  30.4761  26.3259   Oco2      1 RES1   0.0000
   273 O92     25.1364  31.9457  18.2611   Oco2      1 RES1   0.0000
   274 O95     26.3259  25.1364  30.4761   Oco2      1 RES1   0.0000
   275 O96     18.2611  25.1364  31.9457   Oco2      1 RES1   0.0000
   276 C1      20.6955  30.1248  18.2628   C.2       1 RES1   0.0000
   277 C2      23.8915  32.2970  18.2628   C.2       1 RES1   0.0000
   278 C3      23.8915  30.1248  26.3242   C.2       1 RES1   0.0000
   279 C4      20.6955  32.2970  26.3242   C.2       1 RES1   0.0000
   280 C5      18.2628  20.6955  30.1248   C.2       1 RES1   0.0000
   281 C6      18.2628  23.8915  32.2970   C.2       1 RES1   0.0000
   282 C7      26.3242  23.8915  30.1248   C.2       1 RES1   0.0000
   283 C8      26.3242  20.6955  32.2970   C.2       1 RES1   0.0000
   284 C9      30.1248  18.2628  20.6955   C.2       1 RES1   0.0000
   285 C10     32.2970  18.2628  23.8915   C.2       1 RES1   0.0000
   286 C11     30.1248  26.3242  23.8915   C.2       1 RES1   0.0000
   287 C12     32.2970  26.3242  20.6955   C.2       1 RES1   0.0000
   288 C13     32.8089  23.3796  35.2416   C.2       1 RES1   0.0000
   289 C14     29.6129  21.2074  35.2416   C.2       1 RES1   0.0000
   290 C15     29.6129  23.3796  27.1802   C.2       1 RES1   0.0000
   291 C16     32.8089  21.2074  27.1802   C.2       1 RES1   0.0000
   292 C17     35.2416  32.8089  23.3796   C.2       1 RES1   0.0000
   293 C18     35.2416  29.6129  21.2074   C.2       1 RES1   0.0000
   294 C19     27.1802  29.6129  23.3796   C.2       1 RES1   0.0000
   295 C20     27.1802  32.8089  21.2074   C.2       1 RES1   0.0000
   296 C21     23.3796  35.2416  32.8089   C.2       1 RES1   0.0000
   297 C22     21.2074  35.2416  29.6129   C.2       1 RES1   0.0000
   298 C23     23.3796  27.1802  29.6129   C.2       1 RES1   0.0000
   299 C24     21.2074  27.1802  32.8089   C.2       1 RES1   0.0000
   300 C25     21.6550  31.3090  18.2682   C.2       1 RES1   0.0000
   301 C26     22.9320  31.1128  18.2682   C.2       1 RES1   0.0000
   302 C27     22.9320  31.3090  26.3188   C.2       1 RES1   0.0000
   303 C28     21.6550  31.1128  26.3188   C.2       1 RES1   0.0000
   304 C29     18.2682  21.6550  31.3090   C.2       1 RES1   0.0000
   305 C30     18.2682  22.9320  31.1128   C.2       1 RES1   0.0000
   306 C31     26.3188  22.9320  31.3090   C.2       1 RES1   0.0000
   307 C32     26.3188  21.6550  31.1128   C.2       1 RES1   0.0000
   308 C33     31.3090  18.2682  21.6550   C.2       1 RES1   0.0000
   309 C34     31.1128  18.2682  22.9320   C.2       1 RES1   0.0000
   310 C35     31.3090  26.3188  22.9320   C.2       1 RES1   0.0000
   311 C36     31.1128  26.3188  21.6550   C.2       1 RES1   0.0000
   312 C37     31.8494  22.1954  35.2362   C.2       1 RES1   0.0000
   313 C38     30.5724  22.3916  35.2362   C.2       1 RES1   0.0000
   314 C39     30.5724  22.1954  27.1856   C.2       1 RES1   0.0000
   315 C40     31.8494  22.3916  27.1856   C.2       1 RES1   0.0000
   316 C41     35.2362  31.8494  22.1954   C.2       1 RES1   0.0000
   317 C42     35.2362  30.5724  22.3916   C.2       1 RES1   0.0000
   318 C43     27.1856  30.5724  22.1954   C.2       1 RES1   0.0000
   319 C44     27.1856  31.8494  22.3916   C.2       1 RES1   0.0000
   320 C45     22.1954  35.2362  31.8494   C.2       1 RES1   0.0000
   321 C46     22.3916  35.2362  30.5724   C.2       1 RES1   0.0000
   322 C47     22.1954  27.1856  30.5724   C.2       1 RES1   0.0000
   323 C48     22.3916  27.1856  31.8494   C.2       1 RES1   0.0000
   324 H1      21.3215  32.1775  18.2700   H         1 RES1   0.0000
   325 H2      23.2655  30.2443  18.2700   H         1 RES1   0.0000
   326 H3      23.2655  32.1775  26.3170   H         1 RES1   0.0000
   327 H4      21.3215  30.2443  26.3170   H         1 RES1   0.0000
   328 H5      18.2700  21.3215  32.1775   H         1 RES1   0.0000
   329 H6      18.2700  23.2655  30.2443   H         1 RES1   0.0000
   330 H7      26.3170  23.2655  32.1775   H         1 RES1   0.0000
   331 H8      26.3170  21.3215  30.2443   H         1 RES1   0.0000
   332 H9      32.1775  18.2700  21.3215   H         1 RES1   0.0000
   333 H10     30.2443  18.2700  23.2655   H         1 RES1   0.0000
   334 H11     32.1775  26.3170  23.2655   H         1 RES1   0.0000
   335 H12     30.2443  26.3170  21.3215   H         1 RES1   0.0000
   336 H13     32.1829  21.3269  35.2344   H         1 RES1   0.0000
   337 H14     30.2389  23.2601  35.2344   H         1 RES1   0.0000
   338 H15     30.2389  21.3269  27.1874   H         1 RES1   0.0000
   339 H16     32.1829  23.2601  27.1874   H         1 RES1   0.0000
   340 H17     35.2344  32.1829  21.3269   H         1 RES1   0.0000
   341 H18     35.2344  30.2389  23.2601   H         1 RES1   0.0000
   342 H19     27.1874  30.2389  21.3269   H         1 RES1   0.0000
   343 H20     27.1874  32.1829  23.2601   H         1 RES1   0.0000
   344 H21     21.3269  35.2344  32.1829   H         1 RES1   0.0000
   345 H22     23.2601  35.2344  30.2389   H         1 RES1   0.0000
   346 H23     21.3269  27.1874  30.2389   H         1 RES1   0.0000
   347 H24     23.2601  27.1874  32.1829   H         1 RES1   0.0000
   348 C49     21.2341  23.8951  17.8348   C.2       1 RES1   0.0000
   349 C50     23.3529  20.6919  17.8348   C.2       1 RES1   0.0000
   350 C51     23.3529  23.8951  26.7522   C.2       1 RES1   0.0000
   351 C52     21.2341  20.6919  26.7522   C.2       1 RES1   0.0000
   352 C53     17.8348  21.2341  23.8951   C.2       1 RES1   0.0000
   353 C54     17.8348  23.3529  20.6919   C.2       1 RES1   0.0000
   354 C55     26.7522  23.3529  23.8951   C.2       1 RES1   0.0000
   355 C56     26.7522  21.2341  20.6919   C.2       1 RES1   0.0000
   356 C57     23.8951  17.8348  21.2341   C.2       1 RES1   0.0000
   357 C58     20.6919  17.8348  23.3529   C.2       1 RES1   0.0000
   358 C59     23.8951  26.7522  23.3529   C.2       1 RES1   0.0000
   359 C60     20.6919  26.7522  21.2341   C.2       1 RES1   0.0000
   360 C61     32.2703  29.6093  35.6696   C.2       1 RES1   0.0000
   361 C62     30.1515  32.8125  35.6696   C.2       1 RES1   0.0000
   362 C63     30.1515  29.6093  26.7522   C.2       1 RES1   0.0000
   363 C64     32.2703  32.8125  26.7522   C.2       1 RES1   0.0000
   364 C65     35.6696  32.2703  29.6093   C.2       1 RES1   0.0000
   365 C66     35.6696  30.1515  32.8125   C.2       1 RES1   0.0000
   366 C67     26.7522  30.1515  29.6093   C.2       1 RES1   0.0000
   367 C68     26.7522  32.2703  32.8125   C.2       1 RES1   0.0000
   368 C69     29.6093  35.6696  32.2703   C.2       1 RES1   0.0000
   369 C70     32.8125  35.6696  30.1515   C.2       1 RES1   0.0000
   370 C71     29.6093  26.7522  30.1515   C.2       1 RES1   0.0000
   371 C72     32.8125  26.7522  32.2703   C.2       1 RES1   0.0000
   372 C73     22.4130  22.9445  17.8366   C.2       1 RES1   0.0000
   373 C74     22.1740  21.6425  17.8366   C.2       1 RES1   0.0000
   374 C75     22.1740  22.9445  26.7504   C.2       1 RES1   0.0000
   375 C76     22.4130  21.6425  26.7504   C.2       1 RES1   0.0000
   376 C77     17.8366  22.4130  22.9445   C.2       1 RES1   0.0000
   377 C78     17.8366  22.1740  21.6425   C.2       1 RES1   0.0000
   378 C79     26.7504  22.1740  22.9445   C.2       1 RES1   0.0000
   379 C80     26.7504  22.4130  21.6425   C.2       1 RES1   0.0000
   380 C81     22.9445  17.8366  22.4130   C.2       1 RES1   0.0000
   381 C82     21.6425  17.8366  22.1740   C.2       1 RES1   0.0000
   382 C83     22.9445  26.7504  22.1740   C.2       1 RES1   0.0000
   383 C84     21.6425  26.7504  22.4130   C.2       1 RES1   0.0000
   384 C85     31.0914  30.5599  35.6678   C.2       1 RES1   0.0000
   385 C86     31.3304  31.8619  35.6678   C.2       1 RES1   0.0000
   386 C87     31.3304  30.5599  26.7540   C.2       1 RES1   0.0000
   387 C88     31.0914  31.8619  26.7540   C.2       1 RES1   0.0000
   388 C89     35.6678  31.0914  30.5599   C.2       1 RES1   0.0000
   389 C90     35.6678  31.3304  31.8619   C.2       1 RES1   0.0000
   390 C91     26.7540  31.3304  30.5599   C.2       1 RES1   0.0000
   391 C92     26.7540  31.0914  31.8619   C.2       1 RES1   0.0000
   392 C93     30.5599  35.6678  31.0914   C.2       1 RES1   0.0000
   393 C94     31.8619  35.6678  31.3304   C.2       1 RES1   0.0000
   394 C95     30.5599  26.7540  31.3304   C.2       1 RES1   0.0000
   395 C96     31.8619  26.7540  31.0914   C.2       1 RES1   0.0000
   396 H25     23.2851  23.2673  17.8366   H         1 RES1   0.0000
   397 H26     21.3019  21.3197  17.8366   H         1 RES1   0.0000
   398 H27     21.3019  23.2673  26.7504   H         1 RES1   0.0000
   399 H28     23.2851  21.3197  26.7504   H         1 RES1   0.0000
   400 H29     17.8366  23.2851  23.2673   H         1 RES1   0.0000
   401 H30     17.8366  21.3019  21.3197   H         1 RES1   0.0000
   402 H31     26.7504  21.3019  23.2673   H         1 RES1   0.0000
   403 H32     26.7504  23.2851  21.3197   H         1 RES1   0.0000
   404 H33     23.2673  17.8366  23.2851   H         1 RES1   0.0000
   405 H34     21.3197  17.8366  21.3019   H         1 RES1   0.0000
   406 H35     23.2673  26.7504  21.3019   H         1 RES1   0.0000
   407 H36     21.3197  26.7504  23.2851   H         1 RES1   0.0000
   408 H37     30.2193  30.2371  35.6678   H         1 RES1   0.0000
   409 H38     32.2025  32.1847  35.6678   H         1 RES1   0.0000
   410 H39     32.2025  30.2371  26.7540   H         1 RES1   0.0000
   411 H40     30.2193  32.1847  26.7540   H         1 RES1   0.0000
   412 H41     35.6678  30.2193  30.2371   H         1 RES1   0.0000
   413 H42     35.6678  32.2025  32.1847   H         1 RES1   0.0000
   414 H43     26.7540  32.2025  30.2371   H         1 RES1   0.0000
   415 H44     26.7540  30.2193  32.1847   H         1 RES1   0.0000
   416 H45     30.2371  35.6678  30.2193   H         1 RES1   0.0000
   417 H46     32.1847  35.6678  32.2025   H         1 RES1   0.0000
   418 H47     30.2371  26.7540  32.2025   H         1 RES1   0.0000
   419 H48     32.1847  26.7540  30.2193   H         1 RES1   0.0000
   420 O98     25.3878  34.0341  34.5157   O3        1 RES1   0.0000
   421 O99     25.3878  28.3877  27.9061   O3        1 RES1   0.0000
   422 O101    34.5157  19.1992  28.3877   O3        1 RES1   0.0000
   423 O102    34.5157  25.3878  34.0341   O3        1 RES1   0.0000
   424 O103    27.9061  25.3878  28.3877   O3        1 RES1   0.0000
   425 O105    28.3877  34.5157  19.1992   O3        1 RES1   0.0000
   426 O106    34.0341  34.5157  25.3878   O3        1 RES1   0.0000
   427 O107    28.3877  27.9061  25.3878   O3        1 RES1   0.0000
   428 O111    28.1166  25.1167  25.5983   O3        1 RES1   0.0000
   429 O112    34.3052  19.4703  25.5983   O3        1 RES1   0.0000
   430 O115    25.5983  28.1166  25.1167   O3        1 RES1   0.0000
   431 O116    25.5983  34.3052  19.4703   O3        1 RES1   0.0000
   432 O119    25.1167  25.5983  28.1166   O3        1 RES1   0.0000
   433 O155    25.3522  25.3522  25.3522   O3        1 RES1   0.0000
   434 O157    34.2696  28.1522  34.2696   O3        1 RES1   0.0000
   435 O158    28.1522  34.2696  34.2696   O3        1 RES1   0.0000
   436 O159    28.1522  28.1522  28.1522   O3        1 RES1   0.0000
   437 O160    34.2696  34.2696  28.1522   O3        1 RES1   0.0000
   438 Zr1     38.1281  26.9507  18.0467   Zr        1 RES1   0.0000
   439 Zr2     24.2937  35.4711  35.8815   Zr        1 RES1   0.0000
   440 Zr4     38.1281  35.4711  26.5403   Zr        1 RES1   0.0000
   441 Zr5     35.8815  20.2933  26.9507   Zr        1 RES1   0.0000
   442 Zr6     35.8815  24.2937  35.4711   Zr        1 RES1   0.0000
   443 Zr8     26.5403  38.1281  35.4711   Zr        1 RES1   0.0000
   444 Zr9     26.9507  35.8815  20.2933   Zr        1 RES1   0.0000
   445 Zr10    35.4711  35.8815  24.2937   Zr        1 RES1   0.0000
   446 Zr12    35.4711  26.5403  38.1281   Zr        1 RES1   0.0000
   447 Zr14    29.2107  35.8681  35.4577   Zr        1 RES1   0.0000
   448 Zr16    33.2111  35.8681  26.9641   Zr        1 RES1   0.0000
   449 Zr18    35.4577  29.2107  35.8681   Zr        1 RES1   0.0000
   450 Zr20    26.9641  33.2111  35.8681   Zr        1 RES1   0.0000
   451 Zr22    35.8681  35.4577  29.2107   Zr        1 RES1   0.0000
   452 Zr24    35.8681  26.9641  33.2111   Zr        1 RES1   0.0000
   453 O50     23.3707  35.5394  20.0873   Oco2      1 RES1   0.0000
   454 O52     21.2163  35.5394  24.4997   Oco2      1 RES1   0.0000
   455 O54     20.0873  23.3707  35.5394   Oco2      1 RES1   0.0000
   456 O56     24.4997  21.2163  35.5394   Oco2      1 RES1   0.0000
   457 O58     35.5394  20.0873  23.3707   Oco2      1 RES1   0.0000
   458 O60     35.5394  24.4997  21.2163   Oco2      1 RES1   0.0000
   459 O97     37.0340  28.3877  16.6809   O3        1 RES1   0.0000
   460 O100    37.0340  34.0341  27.9061   O3        1 RES1   0.0000
   461 O104    27.9061  37.0340  34.0341   O3        1 RES1   0.0000
   462 O108    34.0341  27.9061  37.0340   O3        1 RES1   0.0000
   463 O109    34.3052  25.1167  36.8235   O3        1 RES1   0.0000
   464 O110    28.1166  19.4703  36.8235   O3        1 RES1   0.0000
   465 O113    36.8235  34.3052  25.1167   O3        1 RES1   0.0000
   466 O114    36.8235  28.1166  19.4703   O3        1 RES1   0.0000
   467 O117    25.1167  36.8235  34.3052   O3        1 RES1   0.0000
   468 O118    19.4703  36.8235  28.1166   O3        1 RES1   0.0000
   469 O120    19.4703  25.5983  16.4704   O3        1 RES1   0.0000
   470 O153    37.0696  25.3522  19.2348   O3        1 RES1   0.0000
   471 O154    25.3522  37.0696  19.2348   O3        1 RES1   0.0000
   472 O156    37.0696  19.2348  25.3522   O3        1 RES1   0.0000
   473 O1      21.5623  25.1203  35.8123   Oco2      1 RES1   0.0000
   474 O25     21.2305  28.9744  36.1083   Oco2      1 RES1   0.0000
   475 O26     23.3565  33.4474  36.1083   Oco2      1 RES1   0.0000
   476 O92     25.1364  31.9457  36.0959   Oco2      1 RES1   0.0000
   477 C1      20.6955  30.1248  36.0976   C.2       1 RES1   0.0000
   478 C2      23.8915  32.2970  36.0976   C.2       1 RES1   0.0000
   479 C25     21.6550  31.3090  36.1030   C.2       1 RES1   0.0000
   480 C26     22.9320  31.1128  36.1030   C.2       1 RES1   0.0000
   481 H1      21.3215  32.1775  36.1048   H         1 RES1   0.0000
   482 H2      23.2655  30.2443  36.1048   H         1 RES1   0.0000
   483 C49     21.2341  23.8951  35.6696   C.2       1 RES1   0.0000
   484 C50     23.3529  20.6919  35.6696   C.2       1 RES1   0.0000
   485 C73     22.4130  22.9445  35.6714   C.2       1 RES1   0.0000
   486 C74     22.1740  21.6425  35.6714   C.2       1 RES1   0.0000
   487 H25     23.2851  23.2673  35.6714   H         1 RES1   0.0000
   488 H26     21.3019  21.3197  35.6714   H         1 RES1   0.0000
   489 O105    28.3877  34.5157  37.0340   O3        1 RES1   0.0000
   490 O116    25.5983  34.3052  37.3051   O3        1 RES1   0.0000
   491 Zr1     38.1281  26.9507  35.8815   Zr        1 RES1   0.0000
   492 Zr9     26.9507  35.8815  38.1281   Zr        1 RES1   0.0000
   493 O97     37.0340  28.3877  34.5157   O3        1 RES1   0.0000
   494 O114    36.8235  28.1166  37.3051   O3        1 RES1   0.0000
   495 O120    19.4703  25.5983  34.3052   O3        1 RES1   0.0000
   496 O153    37.0696  25.3522  37.0696   O3        1 RES1   0.0000
   497 O154    25.3522  37.0696  37.0696   O3        1 RES1   0.0000
   498 O86     30.4761  36.0959  19.4506   Oco2      1 RES1   0.0000
   499 O110    28.1166  37.3051  18.9887   O3        1 RES1   0.0000
   500 O9      25.1203  35.8123  21.5623   Oco2      1 RES1   0.0000
   501 O33     28.9744  36.1083  21.2305   Oco2      1 RES1   0.0000
   502 O34     33.4474  36.1083  23.3565   Oco2      1 RES1   0.0000
   503 O88     31.9457  36.0959  25.1364   Oco2      1 RES1   0.0000
   504 C9      30.1248  36.0976  20.6955   C.2       1 RES1   0.0000
   505 C10     32.2970  36.0976  23.8915   C.2       1 RES1   0.0000
   506 C33     31.3090  36.1030  21.6550   C.2       1 RES1   0.0000
   507 C34     31.1128  36.1030  22.9320   C.2       1 RES1   0.0000
   508 H9      32.1775  36.1048  21.3215   H         1 RES1   0.0000
   509 H10     30.2443  36.1048  23.2655   H         1 RES1   0.0000
   510 C57     23.8951  35.6696  21.2341   C.2       1 RES1   0.0000
   511 C58     20.6919  35.6696  23.3529   C.2       1 RES1   0.0000
   512 C81     22.9445  35.6714  22.4130   C.2       1 RES1   0.0000
   513 C82     21.6425  35.6714  22.1740   C.2       1 RES1   0.0000
   514 H33     23.2673  35.6714  23.2851   H         1 RES1   0.0000
   515 H34     21.3197  35.6714  21.3019   H         1 RES1   0.0000
   516 O101    34.5157  37.0340  28.3877   O3        1 RES1   0.0000
   517 O112    34.3052  37.3051  25.5983   O3        1 RES1   0.0000
   518 Zr5     35.8815  38.1281  26.9507   Zr        1 RES1   0.0000
   519 O110    28.1166  37.3051  36.8235   O3        1 RES1   0.0000
   520 O156    37.0696  37.0696  25.3522   O3        1 RES1   0.0000
   521 O94     36.0959  19.4506  30.4761   Oco2      1 RES1   0.0000
   522 O118    37.3051  18.9887  28.1166   O3        1 RES1   0.0000
   523 O6      35.8123  23.0247  19.4667   Oco2      1 RES1   0.0000
   524 O5      35.8123  21.5623  25.1203   Oco2      1 RES1   0.0000
   525 O29     36.1083  21.2305  28.9744   Oco2      1 RES1   0.0000
   526 O30     36.1083  23.3565  33.4474   Oco2      1 RES1   0.0000
   527 O96     36.0959  25.1364  31.9457   Oco2      1 RES1   0.0000
   528 C5      36.0976  20.6955  30.1248   C.2       1 RES1   0.0000
   529 C6      36.0976  23.8915  32.2970   C.2       1 RES1   0.0000
   530 C29     36.1030  21.6550  31.3090   C.2       1 RES1   0.0000
   531 C30     36.1030  22.9320  31.1128   C.2       1 RES1   0.0000
   532 H5      36.1048  21.3215  32.1775   H         1 RES1   0.0000
   533 H6      36.1048  23.2655  30.2443   H         1 RES1   0.0000
   534 C53     35.6696  21.2341  23.8951   C.2       1 RES1   0.0000
   535 C54     35.6696  23.3529  20.6919   C.2       1 RES1   0.0000
   536 C77     35.6714  22.4130  22.9445   C.2       1 RES1   0.0000
   537 C78     35.6714  22.1740  21.6425   C.2       1 RES1   0.0000
   538 H29     35.6714  23.2851  23.2673   H         1 RES1   0.0000
   539 H30     35.6714  21.3019  21.3197   H         1 RES1   0.0000
   540 O118    37.3051  36.8235  28.1166   O3        1 RES1   0.0000
   541 O120    37.3051  25.5983  16.4704   O3        1 RES1   0.0000
   542 O120    37.3051  25.5983  34.3052   O3        1 RES1   0.0000
   543 H7      38.3204  25.2498  34.1159   H7        1 RES1   0.0000
   544 H7      38.1979  25.2918  15.9254   H7        1 RES1   0.0000
   545 H7      34.2272  38.2458  25.0533   H7        1 RES1   0.0000
   546 H7      34.4377  37.9747  28.9327   H7        1 RES1   0.0000
   547 H7      25.0708  37.7112  37.9046   H7        1 RES1   0.0000
   548 H7      37.6225  24.9219  37.9046   H7        1 RES1   0.0000
   549 H7      20.0574  24.6997  34.1159   H7        1 RES1   0.0000
   550 H7      29.0883  34.5157  37.8690   H7        1 RES1   0.0000
   551 H7      24.9210  38.0526  19.4241   H7        1 RES1   0.0000
   552 H7      37.9167  24.6929  19.4241   H7        1 RES1   0.0000
   553 H7      19.6742  25.2862  15.4461   H7        1 RES1   0.0000
   554 H7      24.3897  37.6133  34.1159   H7        1 RES1   0.0000
   555 H7      37.7163  33.9987  24.5717   H7        1 RES1   0.0000
   556 H7      33.8843  28.2475  38.0583   H7        1 RES1   0.0000
   557 H7      37.9268  33.7276  28.4511   H7        1 RES1   0.0000
   558 H7      29.1675  33.9211  34.0803   H7        1 RES1   0.0000
   559 H7      33.8384  29.1352  34.0803   H7        1 RES1   0.0000
   560 H7      25.1238  28.6321  24.2817   H7        1 RES1   0.0000
   561 H7      34.0238  20.1119  24.7633   H7        1 RES1   0.0000
   562 H7      28.6329  24.3264  25.0533   H7        1 RES1   0.0000
   563 H7      29.4611  34.5157  19.3885   H7        1 RES1   0.0000
   564 H7      28.2893  24.8012  29.2227   H7        1 RES1   0.0000
   565 H7      34.4849  19.5707  29.4120   H7        1 RES1   0.0000
   566 H7      24.7485  29.0822  28.4511   H7        1 RES1   0.0000
   567 H7      24.6422  37.3390  15.6354   H7        1 RES1   0.0000
   568 H7      33.6029  28.8891  19.3885   H7        1 RES1   0.0000
   569 H7      28.8149  34.0421  15.5998   H7        1 RES1   0.0000
   570 H7      33.9882  28.7938  15.5998   H7        1 RES1   0.0000
   571 H7      24.6611  19.3501  37.9046   H7        1 RES1   0.0000
   572 H7      28.7709  16.0943  37.8690   H7        1 RES1   0.0000
   573 H7      24.2934  19.4115  19.4241   H7        1 RES1   0.0000
   574 H7      24.0579  19.1654  34.1159   H7        1 RES1   0.0000
   575 H7      37.3398  15.6801  24.5717   H7        1 RES1   0.0000
   576 H7      37.6211  15.3007  28.0954   H7        1 RES1   0.0000
   577 H7      28.7393  15.5362  34.0803   H7        1 RES1   0.0000
   578 H7      28.9748  15.7823  19.3885   H7        1 RES1   0.0000
   579 H7      24.4256  19.1040  15.6354   H7        1 RES1   0.0000
   580 H7      28.5354  15.8482  15.5998   H7        1 RES1   0.0000
   581 H7      15.7434  38.0949  25.4090   H7        1 RES1   0.0000
   582 H7      16.0416  37.7285  28.9327   H7        1 RES1   0.0000
   583 H7      19.4068  24.6730  37.9046   H7        1 RES1   0.0000
   584 H7      19.4983  24.3116  19.4241   H7        1 RES1   0.0000
   585 H7      19.0802  33.9438  24.0924   H7        1 RES1   0.0000
   586 H7      15.3691  28.3554  37.5790   H7        1 RES1   0.0000
   587 H7      19.3712  33.3549  28.7411   H7        1 RES1   0.0000
   588 H7      15.4907  28.6631  34.0803   H7        1 RES1   0.0000
   589 H7      15.5393  19.6257  25.0533   H7        1 RES1   0.0000
   590 H7      15.7498  19.3546  28.9327   H7        1 RES1   0.0000
   591 H7      15.2552  28.4170  19.3885   H7        1 RES1   0.0000
   592 H7      15.8186  28.4857  15.5998   H7        1 RES1   0.0000
   593 H7      19.2204  15.5553  24.5717   H7        1 RES1   0.0000
   594 H7      19.4309  15.2842  28.4511   H7        1 RES1   0.0000
@<TRIPOS>BOND
     1     1     2   un
     2     1     3   un
     3     1     4   un
     4     1     5   un
     5     1     6   un
     6     1     7   un
     7     1     8   un
     8     1     9   un
     9     2     5   un
    10     2     6   un
    11     3     6   un
    12     3     7   un
    13     4     5   un
    14     4     7   un
    15     4     8   un
    16     4     9   un
    17     4    49   un
    18     4    70   un
    19     4    99   un
    20     4   128   un
    21     4   130   un
    22     4   137   un
    23     5     6   un
    24     5     9   un
    25     5    44   un
    26     5    49   un
    27     5    57   un
    28     5    59   un
    29     5    70   un
    30     6     7   un
    31     6    41   un
    32     6    44   un
    33     6    49   un
    34     7     8   un
    35     7    41   un
    36     7    49   un
    37     7    95   un
    38     7   132   un
    39     7   137   un
    40     8   594   un
    41     9   593   un
    42    10    11   un
    43    10    12   un
    44    10    13   un
    45    10    14   un
    46    10    15   un
    47    10    16   un
    48    10    17   un
    49    10    18   un
    50    11    13   un
    51    11    16   un
    52    12    15   un
    53    12    16   un
    54    12   592   un
    55    13    14   un
    56    13    16   un
    57    13    18   un
    58    13    47   un
    59    13    69   un
    60    13   178   un
    61    13   180   un
    62    13   469   un
    63    14    15   un
    64    14    17   un
    65    14    18   un
    66    14    28   un
    67    14    47   un
    68    14    58   un
    69    14    60   un
    70    14    68   un
    71    14    69   un
    72    15    16   un
    73    15    17   un
    74    15    24   un
    75    15    47   un
    76    15    62   un
    77    15    63   un
    78    15    68   un
    79    16    47   un
    80    16    63   un
    81    16   469   un
    82    17   591   un
    83    19    42   un
    84    19    45   un
    85    19    50   un
    86    19    52   un
    87    19    54   un
    88    19    56   un
    89    19    65   un
    90    19    66   un
    91    20    21   un
    92    20    23   un
    93    20    43   un
    94    20    46   un
    95    20    48   un
    96    20    51   un
    97    20    53   un
    98    20    55   un
    99    20    61   un
   100    20    64   un
   101    20    67   un
   102    21    35   un
   103    22    36   un
   104    22    54   un
   105    23    29   un
   106    24    30   un
   107    25    35   un
   108    25    55   un
   109    26    36   un
   110    26    56   un
   111    27    29   un
   112    27    51   un
   113    28    30   un
   114    29    31   un
   115    30    32   un
   116    31    32   un
   117    31    33   un
   118    32    34   un
   119    35    37   un
   120    36    38   un
   121    37    38   un
   122    37    39   un
   123    38    40   un
   124    41    49   un
   125    41   590   un
   126    42    50   un
   127    42    56   un
   128    43    51   un
   129    43    53   un
   130    44    49   un
   131    44   589   un
   132    45    54   un
   133    45    56   un
   134    45   588   un
   135    46    53   un
   136    46    55   un
   137    47    63   un
   138    47    68   un
   139    47    69   un
   140    47   198   un
   141    47   216   un
   142    47   240   un
   143    47   469   un
   144    48    51   un
   145    48    55   un
   146    48    64   un
   147    48    67   un
   148    48    78   un
   149    48    80   un
   150    48   219   un
   151    48   261   un
   152    48   454   un
   153    48   468   un
   154    49    70   un
   155    49   137   un
   156    49   200   un
   157    49   220   un
   158    49   242   un
   159    50    52   un
   160    50    56   un
   161    50    66   un
   162    50    71   un
   163    50    75   un
   164    50   221   un
   165    50   455   un
   166    50   495   un
   167    51    53   un
   168    51    67   un
   169    51    77   un
   170    51    78   un
   171    51    79   un
   172    51    80   un
   173    52    54   un
   174    52    65   un
   175    52    66   un
   176    52    71   un
   177    52    74   un
   178    52    75   un
   179    53    55   un
   180    53    76   un
   181    53    77   un
   182    53    78   un
   183    54    56   un
   184    54    65   un
   185    54    71   un
   186    54    72   un
   187    54    73   un
   188    54    74   un
   189    55    64   un
   190    55    76   un
   191    55    78   un
   192    55   237   un
   193    55   468   un
   194    56    71   un
   195    56    73   un
   196    56   239   un
   197    56   275   un
   198    56   495   un
   199    57   357   un
   200    58   359   un
   201    59   352   un
   202    60   353   un
   203    61   279   un
   204    62   276   un
   205    64   587   un
   206    65   586   un
   207    67   585   un
   208    69   584   un
   209    71    73   un
   210    71    74   un
   211    71    75   un
   212    71   258   un
   213    71   473   un
   214    71   474   un
   215    71   495   un
   216    72   477   un
   217    75   583   un
   218    76    78   un
   219    76   582   un
   220    77    78   un
   221    77   581   un
   222    78    80   un
   223    78   468   un
   224    79   511   un
   225    81    82   un
   226    81    83   un
   227    81    84   un
   228    81    85   un
   229    81    86   un
   230    81    87   un
   231    81    88   un
   232    81    89   un
   233    82    84   un
   234    82    87   un
   235    83    86   un
   236    83    87   un
   237    83   580   un
   238    84    85   un
   239    84    87   un
   240    84    89   un
   241    84   115   un
   242    84   121   un
   243    84   127   un
   244    84   129   un
   245    84   138   un
   246    85    86   un
   247    85    88   un
   248    85    89   un
   249    85   121   un
   250    85   138   un
   251    85   153   un
   252    85   179   un
   253    85   181   un
   254    85   187   un
   255    86    87   un
   256    86    88   un
   257    86   113   un
   258    86   121   un
   259    86   149   un
   260    86   183   un
   261    86   187   un
   262    87   113   un
   263    87   115   un
   264    87   121   un
   265    89   579   un
   266    90   114   un
   267    90   117   un
   268    90   119   un
   269    90   122   un
   270    90   124   un
   271    90   126   un
   272    90   133   un
   273    90   135   un
   274    91    92   un
   275    91    94   un
   276    91   112   un
   277    91   116   un
   278    91   118   un
   279    91   120   un
   280    91   123   un
   281    91   125   un
   282    91   131   un
   283    91   134   un
   284    91   136   un
   285    92   106   un
   286    93   107   un
   287    93   126   un
   288    94   100   un
   289    95   101   un
   290    96   106   un
   291    96   123   un
   292    97   107   un
   293    97   124   un
   294    98   100   un
   295    98   118   un
   296    99   101   un
   297   100   102   un
   298   101   103   un
   299   102   103   un
   300   102   104   un
   301   103   105   un
   302   106   108   un
   303   107   109   un
   304   108   109   un
   305   108   110   un
   306   109   111   un
   307   112   118   un
   308   112   125   un
   309   113   121   un
   310   113   578   un
   311   114   122   un
   312   114   124   un
   313   115   121   un
   314   116   123   un
   315   116   125   un
   316   116   577   un
   317   117   124   un
   318   117   126   un
   319   118   120   un
   320   118   125   un
   321   118   136   un
   322   118   140   un
   323   118   141   un
   324   118   142   un
   325   118   143   un
   326   119   122   un
   327   119   126   un
   328   119   133   un
   329   119   135   un
   330   119   441   un
   331   119   472   un
   332   119   522   un
   333   120   123   un
   334   120   134   un
   335   120   136   un
   336   120   141   un
   337   120   143   un
   338   120   223   un
   339   120   265   un
   340   120   456   un
   341   120   464   un
   342   121   138   un
   343   121   187   un
   344   121   202   un
   345   121   224   un
   346   121   244   un
   347   122   124   un
   348   122   135   un
   349   122   225   un
   350   122   429   un
   351   122   441   un
   352   122   457   un
   353   122   472   un
   354   123   125   un
   355   123   134   un
   356   123   139   un
   357   123   141   un
   358   123   229   un
   359   123   464   un
   360   124   126   un
   361   124   231   un
   362   124   271   un
   363   124   422   un
   364   124   429   un
   365   124   441   un
   366   125   139   un
   367   125   140   un
   368   125   141   un
   369   126   133   un
   370   126   422   un
   371   126   441   un
   372   126   521   un
   373   126   522   un
   374   127   349   un
   375   128   351   un
   376   129   356   un
   377   130   357   un
   378   131   283   un
   379   132   280   un
   380   133   576   un
   381   135   575   un
   382   136   574   un
   383   138   573   un
   384   139   141   un
   385   139   572   un
   386   140   141   un
   387   141   143   un
   388   141   464   un
   389   142   484   un
   390   143   571   un
   391   144   146   un
   392   144   148   un
   393   144   167   un
   394   144   168   un
   395   144   171   un
   396   144   173   un
   397   144   175   un
   398   144   177   un
   399   144   182   un
   400   144   185   un
   401   144   186   un
   402   145   166   un
   403   145   169   un
   404   145   170   un
   405   145   172   un
   406   145   174   un
   407   145   176   un
   408   145   184   un
   409   145   188   un
   410   146   160   un
   411   147   161   un
   412   147   174   un
   413   148   154   un
   414   149   155   un
   415   150   160   un
   416   150   175   un
   417   151   161   un
   418   151   176   un
   419   152   154   un
   420   152   171   un
   421   153   155   un
   422   154   156   un
   423   155   157   un
   424   156   157   un
   425   156   158   un
   426   157   159   un
   427   160   162   un
   428   161   163   un
   429   162   163   un
   430   162   164   un
   431   163   165   un
   432   166   170   un
   433   166   176   un
   434   167   171   un
   435   167   177   un
   436   168   175   un
   437   168   177   un
   438   168   570   un
   439   169   174   un
   440   169   176   un
   441   169   569   un
   442   170   172   un
   443   170   176   un
   444   170   188   un
   445   170   217   un
   446   170   431   un
   447   170   444   un
   448   170   453   un
   449   170   471   un
   450   171   173   un
   451   171   177   un
   452   171   186   un
   453   171   438   un
   454   171   470   un
   455   171   523   un
   456   171   541   un
   457   172   174   un
   458   172   184   un
   459   172   188   un
   460   172   444   un
   461   172   471   un
   462   172   499   un
   463   173   175   un
   464   173   185   un
   465   173   186   un
   466   173   227   un
   467   173   269   un
   468   173   438   un
   469   173   458   un
   470   173   466   un
   471   173   470   un
   472   174   176   un
   473   174   184   un
   474   174   425   un
   475   174   444   un
   476   174   498   un
   477   174   499   un
   478   175   177   un
   479   175   185   un
   480   175   233   un
   481   175   438   un
   482   175   459   un
   483   175   466   un
   484   176   235   un
   485   176   273   un
   486   176   425   un
   487   176   431   un
   488   176   444   un
   489   177   438   un
   490   177   459   un
   491   177   541   un
   492   178   353   un
   493   179   355   un
   494   180   348   un
   495   181   349   un
   496   182   287   un
   497   183   284   un
   498   185   568   un
   499   188   567   un
   500   189   190   un
   501   189   191   un
   502   189   195   un
   503   189   197   un
   504   189   199   un
   505   189   218   un
   506   189   241   un
   507   189   260   un
   508   189   421   un
   509   189   430   un
   510   189   432   un
   511   189   433   un
   512   190   191   un
   513   190   193   un
   514   190   197   un
   515   190   201   un
   516   190   222   un
   517   190   243   un
   518   190   264   un
   519   190   424   un
   520   190   428   un
   521   190   432   un
   522   190   433   un
   523   191   193   un
   524   191   195   un
   525   191   203   un
   526   191   226   un
   527   191   245   un
   528   191   268   un
   529   191   427   un
   530   191   428   un
   531   191   430   un
   532   191   433   un
   533   192   204   un
   534   192   228   un
   535   192   246   un
   536   192   423   un
   537   192   434   un
   538   192   442   un
   539   192   446   un
   540   192   449   un
   541   192   452   un
   542   192   462   un
   543   192   463   un
   544   193   195   un
   545   193   197   un
   546   193   206   un
   547   193   230   un
   548   193   248   un
   549   193   270   un
   550   193   424   un
   551   193   427   un
   552   193   428   un
   553   193   436   un
   554   194   208   un
   555   194   232   un
   556   194   250   un
   557   194   426   un
   558   194   437   un
   559   194   440   un
   560   194   445   un
   561   194   448   un
   562   194   451   un
   563   194   460   un
   564   194   465   un
   565   195   197   un
   566   195   210   un
   567   195   234   un
   568   195   252   un
   569   195   272   un
   570   195   421   un
   571   195   427   un
   572   195   430   un
   573   195   436   un
   574   196   212   un
   575   196   236   un
   576   196   254   un
   577   196   420   un
   578   196   435   un
   579   196   439   un
   580   196   443   un
   581   196   447   un
   582   196   450   un
   583   196   461   un
   584   196   467   un
   585   197   214   un
   586   197   238   un
   587   197   256   un
   588   197   274   un
   589   197   421   un
   590   197   424   un
   591   197   432   un
   592   197   436   un
   593   198   348   un
   594   199   350   un
   595   200   352   un
   596   201   354   un
   597   202   356   un
   598   203   358   un
   599   204   360   un
   600   205   361   un
   601   205   447   un
   602   206   362   un
   603   207   363   un
   604   207   448   un
   605   208   364   un
   606   209   365   un
   607   209   449   un
   608   210   366   un
   609   211   367   un
   610   211   450   un
   611   212   368   un
   612   213   369   un
   613   213   451   un
   614   214   370   un
   615   215   371   un
   616   215   452   un
   617   216   276   un
   618   217   277   un
   619   218   278   un
   620   219   279   un
   621   220   280   un
   622   221   281   un
   623   222   282   un
   624   223   283   un
   625   224   284   un
   626   225   285   un
   627   226   286   un
   628   227   287   un
   629   228   288   un
   630   229   289   un
   631   230   290   un
   632   231   291   un
   633   232   292   un
   634   233   293   un
   635   234   294   un
   636   235   295   un
   637   236   296   un
   638   237   297   un
   639   238   298   un
   640   239   299   un
   641   240   359   un
   642   241   358   un
   643   242   351   un
   644   243   350   un
   645   244   355   un
   646   245   354   un
   647   246   371   un
   648   247   368   un
   649   247   447   un
   650   248   370   un
   651   249   369   un
   652   249   448   un
   653   250   363   un
   654   251   360   un
   655   251   449   un
   656   252   362   un
   657   253   361   un
   658   253   450   un
   659   254   367   un
   660   255   364   un
   661   255   451   un
   662   256   366   un
   663   257   365   un
   664   257   452   un
   665   258   299   un
   666   259   296   un
   667   259   439   un
   668   260   298   un
   669   261   297   un
   670   262   291   un
   671   262   441   un
   672   263   288   un
   673   263   442   un
   674   264   290   un
   675   265   289   un
   676   266   295   un
   677   266   444   un
   678   267   292   un
   679   267   445   un
   680   268   294   un
   681   269   293   un
   682   270   286   un
   683   271   285   un
   684   272   278   un
   685   273   277   un
   686   274   282   un
   687   275   281   un
   688   276   300   un
   689   277   301   un
   690   278   302   un
   691   279   303   un
   692   280   304   un
   693   281   305   un
   694   282   306   un
   695   283   307   un
   696   284   308   un
   697   285   309   un
   698   286   310   un
   699   287   311   un
   700   288   312   un
   701   289   313   un
   702   290   314   un
   703   291   315   un
   704   292   316   un
   705   293   317   un
   706   294   318   un
   707   295   319   un
   708   296   320   un
   709   297   321   un
   710   298   322   un
   711   299   323   un
   712   300   301   un
   713   300   324   un
   714   301   325   un
   715   302   303   un
   716   302   326   un
   717   303   327   un
   718   304   305   un
   719   304   328   un
   720   305   329   un
   721   306   307   un
   722   306   330   un
   723   307   331   un
   724   308   309   un
   725   308   332   un
   726   309   333   un
   727   310   311   un
   728   310   334   un
   729   311   335   un
   730   312   313   un
   731   312   336   un
   732   313   337   un
   733   314   315   un
   734   314   338   un
   735   315   339   un
   736   316   317   un
   737   316   340   un
   738   317   341   un
   739   318   319   un
   740   318   342   un
   741   319   343   un
   742   320   321   un
   743   320   344   un
   744   321   345   un
   745   322   323   un
   746   322   346   un
   747   323   347   un
   748   348   372   un
   749   349   373   un
   750   350   374   un
   751   351   375   un
   752   352   376   un
   753   353   377   un
   754   354   378   un
   755   355   379   un
   756   356   380   un
   757   357   381   un
   758   358   382   un
   759   359   383   un
   760   360   384   un
   761   361   385   un
   762   362   386   un
   763   363   387   un
   764   364   388   un
   765   365   389   un
   766   366   390   un
   767   367   391   un
   768   368   392   un
   769   369   393   un
   770   370   394   un
   771   371   395   un
   772   372   373   un
   773   372   396   un
   774   373   397   un
   775   374   375   un
   776   374   398   un
   777   375   399   un
   778   376   377   un
   779   376   400   un
   780   377   401   un
   781   378   379   un
   782   378   402   un
   783   379   403   un
   784   380   381   un
   785   380   404   un
   786   381   405   un
   787   382   383   un
   788   382   406   un
   789   383   407   un
   790   384   385   un
   791   384   408   un
   792   385   409   un
   793   386   387   un
   794   386   410   un
   795   387   411   un
   796   388   389   un
   797   388   412   un
   798   389   413   un
   799   390   391   un
   800   390   414   un
   801   391   415   un
   802   392   393   un
   803   392   416   un
   804   393   417   un
   805   394   395   un
   806   394   418   un
   807   395   419   un
   808   420   439   un
   809   420   450   un
   810   421   566   un
   811   422   441   un
   812   422   565   un
   813   423   442   un
   814   423   452   un
   815   424   564   un
   816   425   444   un
   817   425   563   un
   818   426   445   un
   819   426   448   un
   820   428   562   un
   821   429   441   un
   822   429   561   un
   823   430   560   un
   824   431   444   un
   825   434   449   un
   826   434   452   un
   827   434   559   un
   828   435   447   un
   829   435   450   un
   830   435   558   un
   831   437   448   un
   832   437   451   un
   833   438   459   un
   834   438   466   un
   835   438   470   un
   836   438   541   un
   837   439   443   un
   838   439   450   un
   839   439   467   un
   840   439   475   un
   841   439   490   un
   842   439   492   un
   843   439   497   un
   844   440   445   un
   845   440   451   un
   846   440   460   un
   847   440   465   un
   848   440   518   un
   849   440   520   un
   850   440   540   un
   851   441   472   un
   852   441   522   un
   853   441   524   un
   854   441   525   un
   855   442   446   un
   856   442   452   un
   857   442   463   un
   858   442   491   un
   859   442   496   un
   860   442   526   un
   861   442   542   un
   862   443   447   un
   863   443   461   un
   864   443   467   un
   865   443   492   un
   866   443   497   un
   867   443   519   un
   868   444   471   un
   869   444   499   un
   870   444   500   un
   871   444   501   un
   872   445   448   un
   873   445   465   un
   874   445   502   un
   875   445   517   un
   876   445   518   un
   877   445   520   un
   878   446   449   un
   879   446   462   un
   880   446   463   un
   881   446   491   un
   882   446   494   un
   883   446   496   un
   884   447   450   un
   885   447   461   un
   886   447   489   un
   887   447   492   un
   888   447   519   un
   889   448   451   un
   890   448   503   un
   891   448   516   un
   892   448   517   un
   893   448   518   un
   894   449   452   un
   895   449   462   un
   896   449   491   un
   897   449   493   un
   898   449   494   un
   899   450   476   un
   900   450   489   un
   901   450   490   un
   902   450   492   un
   903   451   460   un
   904   451   516   un
   905   451   518   un
   906   451   540   un
   907   452   491   un
   908   452   493   un
   909   452   527   un
   910   452   542   un
   911   453   510   un
   912   454   511   un
   913   455   483   un
   914   456   484   un
   915   457   534   un
   916   458   535   un
   917   460   557   un
   918   462   556   un
   919   465   555   un
   920   467   554   un
   921   469   553   un
   922   470   552   un
   923   471   551   un
   924   473   483   un
   925   474   477   un
   926   475   478   un
   927   476   478   un
   928   477   479   un
   929   478   480   un
   930   479   480   un
   931   479   481   un
   932   480   482   un
   933   483   485   un
   934   484   486   un
   935   485   486   un
   936   485   487   un
   937   486   488   un
   938   489   492   un
   939   489   550   un
   940   490   492   un
   941   491   493   un
   942   491   494   un
   943   491   496   un
   944   491   542   un
   945   492   497   un
   946   492   519   un
   947   495   549   un
   948   496   548   un
   949   497   547   un
   950   498   504   un
   951   500   510   un
   952   501   504   un
   953   502   505   un
   954   503   505   un
   955   504   506   un
   956   505   507   un
   957   506   507   un
   958   506   508   un
   959   507   509   un
   960   510   512   un
   961   511   513   un
   962   512   513   un
   963   512   514   un
   964   513   515   un
   965   516   518   un
   966   516   546   un
   967   517   518   un
   968   517   545   un
   969   518   520   un
   970   518   540   un
   971   521   528   un
   972   523   535   un
   973   524   534   un
   974   525   528   un
   975   526   529   un
   976   527   529   un
   977   528   530   un
   978   529   531   un
   979   530   531   un
   980   530   532   un
   981   531   533   un
   982   534   536   un
   983   535   537   un
   984   536   537   un
   985   536   538   un
   986   537   539   un
   987   541   544   un
   988   542   543   un
@<TRIPOS>SUBSTRUCTURE
     1 RES1        1 GROUP             0 ****  ****    0  
@<TRIPOS>CRYSIN
   17.8348   17.8348   17.8348   90.0000   90.0000   90.0000     1     1
