
#######################################################################
#
#                 Cambridge Crystallographic Data Centre
#                                CCDC 
#
#######################################################################
#
# If this CIF has been generated from an entry in the Cambridge 
# Structural Database, then it will include bibliographic, chemical, 
# crystal, experimental, refinement or atomic coordinate data resulting 
# from the CCDC's data processing and validation procedures.
#
#######################################################################

data_MOL
_symmetry_cell_setting           triclinic
_symmetry_space_group_name_H-M   'P 1'
_symmetry_Int_Tables_number      1
_space_group_name_Hall           'P 1'
loop_
_symmetry_equiv_pos_site_id
_symmetry_equiv_pos_as_xyz
1 x,y,z
_cell_length_a                   17.8348
_cell_length_b                   17.8348
_cell_length_c                   17.8348
_cell_angle_alpha                90
_cell_angle_beta                 90
_cell_angle_gamma                90
_cell_volume                     5672.89
loop_
_atom_site_label
_atom_site_type_symbol
_atom_site_fract_x
_atom_site_fract_y
_atom_site_fract_z
Zr17 Zr 0.988119 0.862152 1.48887
O106 Unknown 0.908297 0.935301 1.4235
O160 Unknown 0.921502 0.921502 1.5785
Zr4 Zr 1.13785 0.98887 1.48812
Zr10 Zr 0.98887 1.01188 1.36215
Zr16 Zr 0.862152 1.01113 1.51188
Zr22 Zr 1.01113 0.988119 1.63785
O100 Unknown 1.0765 0.908297 1.5647
O113 Unknown 1.0647 0.923498 1.4083
Zr13 Zr 0.862152 1.48887 0.988119
O102 Unknown 0.935301 1.4235 0.908297
O157 Unknown 0.921502 1.5785 0.921502
Zr6 Zr 1.01188 1.36215 0.98887
Zr12 Zr 0.98887 1.48812 1.13785
Zr18 Zr 0.988119 1.63785 1.01113
Zr24 Zr 1.01113 1.51188 0.862152
O108 Unknown 0.908297 1.5647 1.0765
O109 Unknown 0.923498 1.4083 1.0647
Zr13 Zr 0.862152 1.48887 1.98812
Zr17 Zr 0.988119 1.86215 1.48887
O17 Unknown 0.991999 1.791 1.5915
O18 Unknown 0.991999 1.709 1.9085
O41 Unknown 0.975402 1.8096 1.3754
O42 Unknown 0.975402 1.6904 1.1246
O70 Unknown 1.0073 1.8737 1.6896
O72 Unknown 1.0073 1.6263 1.8104
O82 Unknown 0.976097 1.9094 1.2912
O84 Unknown 0.976097 1.5906 1.2088
C17 C 0.976002 1.8396 1.3109
C18 C 0.976002 1.6604 1.1891
C41 C 0.975699 1.7858 1.2445
C42 C 0.975699 1.7142 1.2555
H17 H 0.975598 1.8045 1.1958
H18 H 0.975598 1.6955 1.3042
C65 C 1 1.8094 1.6602
C66 C 1 1.6906 1.8398
C89 C 0.999899 1.7433 1.7135
C90 C 0.999899 1.7567 1.7865
H41 H 0.999899 1.6944 1.6954
H42 H 0.999899 1.8056 1.8046
O101 Unknown 0.935301 1.0765 1.5917
O102 Unknown 0.935301 1.4235 1.9083
O106 Unknown 0.908297 1.9353 1.4235
O112 Unknown 0.923498 1.0917 1.4353
O157 Unknown 0.921502 1.5785 1.9215
O160 Unknown 0.921502 1.9215 1.5785
Zr1 Zr 1.13785 1.51113 1.01188
Zr4 Zr 1.13785 1.98887 1.48812
Zr5 Zr 1.01188 1.13785 1.51113
Zr6 Zr 1.01188 1.36215 1.98887
Zr10 Zr 0.98887 2.01188 1.36215
Zr12 Zr 0.98887 1.48812 2.13785
Zr16 Zr 0.862152 2.01113 1.51188
Zr18 Zr 0.988119 1.63785 2.01113
Zr22 Zr 1.01113 1.98812 1.63785
Zr24 Zr 1.01113 1.51188 1.86215
O10 Unknown 1.0915 1.008 1.291
O12 Unknown 1.0915 1.492 1.209
O58 Unknown 0.9927 1.1263 1.3104
O60 Unknown 0.9927 1.3737 1.1896
O89 Unknown 1.0906 1.7912 1.4761
O90 Unknown 1.0906 1.7088 1.0239
O97 Unknown 1.0765 1.5917 0.935301
O100 Unknown 1.0765 1.9083 1.5647
O108 Unknown 0.908297 1.5647 2.0765
O109 Unknown 0.923498 1.4083 2.0647
O113 Unknown 1.0647 1.9235 1.4083
O114 Unknown 1.0647 1.5765 1.0917
O153 Unknown 1.0785 1.4215 1.0785
O156 Unknown 1.0785 1.0785 1.4215
Zr1 Zr 1.13785 1.51113 2.01188
O90 Unknown 1.0906 1.7088 2.0239
O97 Unknown 1.0765 1.5917 1.9353
O114 Unknown 1.0647 1.5765 2.0917
O153 Unknown 1.0785 1.4215 2.0785
O101 Unknown 0.935301 2.0765 1.5917
O112 Unknown 0.923498 2.0917 1.4353
Zr5 Zr 1.01188 2.13785 1.51113
O10 Unknown 1.0915 2.008 1.291
O156 Unknown 1.0785 2.0785 1.4215
Zr21 Zr 1.48887 0.988119 0.862152
O98 Unknown 1.4235 0.908297 0.935301
O158 Unknown 1.5785 0.921502 0.921502
Zr2 Zr 1.36215 0.98887 1.01188
Zr8 Zr 1.48812 1.13785 0.98887
Zr14 Zr 1.63785 1.01113 0.988119
Zr20 Zr 1.51188 0.862152 1.01113
O104 Unknown 1.5647 1.0765 0.908297
O117 Unknown 1.4083 1.0647 0.923498
Zr17 Zr 1.98812 0.862152 1.48887
Zr21 Zr 1.48887 0.988119 1.86215
O21 Unknown 1.5915 0.991999 1.791
O22 Unknown 1.9085 0.991999 1.709
O45 Unknown 1.3754 0.975402 1.8096
O46 Unknown 1.1246 0.975402 1.6904
O62 Unknown 1.6896 1.0073 1.8737
O64 Unknown 1.8104 1.0073 1.6263
O74 Unknown 1.2912 0.976097 1.9094
O76 Unknown 1.2088 0.976097 1.5906
C21 C 1.3109 0.976002 1.8396
C22 C 1.1891 0.976002 1.6604
C45 C 1.2445 0.975699 1.7858
C46 C 1.2555 0.975699 1.7142
H21 H 1.1958 0.975598 1.8045
H22 H 1.3042 0.975598 1.6955
C69 C 1.6602 1 1.8094
C70 C 1.8398 1 1.6906
C93 C 1.7135 0.999899 1.7433
C94 C 1.7865 0.999899 1.7567
H45 H 1.6954 0.999899 1.6944
H46 H 1.8046 0.999899 1.8056
O98 Unknown 1.4235 0.908297 1.9353
O105 Unknown 1.5917 0.935301 1.0765
O106 Unknown 1.9083 0.935301 1.4235
O116 Unknown 1.4353 0.923498 1.0917
O158 Unknown 1.5785 0.921502 1.9215
O160 Unknown 1.9215 0.921502 1.5785
Zr2 Zr 1.36215 0.98887 2.01188
Zr4 Zr 2.13785 0.98887 1.48812
Zr8 Zr 1.48812 1.13785 1.98887
Zr9 Zr 1.51113 1.01188 1.13785
Zr10 Zr 1.98887 1.01188 1.36215
Zr14 Zr 1.63785 1.01113 1.98812
Zr16 Zr 1.86215 1.01113 1.51188
Zr20 Zr 1.51188 0.862152 2.01113
Zr22 Zr 2.01113 0.988119 1.63785
O2 Unknown 1.291 1.0915 1.008
O4 Unknown 1.209 1.0915 1.492
O50 Unknown 1.3104 0.9927 1.1263
O52 Unknown 1.1896 0.9927 1.3737
O93 Unknown 1.4761 1.0906 1.7912
O94 Unknown 1.0239 1.0906 1.7088
O100 Unknown 2.0765 0.908297 1.5647
O104 Unknown 1.5647 1.0765 1.9083
O113 Unknown 2.0647 0.923498 1.4083
O117 Unknown 1.4083 1.0647 1.9235
O118 Unknown 1.0917 1.0647 1.5765
O154 Unknown 1.4215 1.0785 1.0785
O105 Unknown 1.5917 0.935301 2.0765
O116 Unknown 1.4353 0.923498 2.0917
Zr9 Zr 1.51113 1.01188 2.13785
O2 Unknown 1.291 1.0915 2.008
O154 Unknown 1.4215 1.0785 2.0785
Zr13 Zr 1.86215 1.48887 0.988119
Zr21 Zr 1.48887 1.98812 0.862152
O13 Unknown 1.791 1.5915 0.991999
O14 Unknown 1.709 1.9085 0.991999
O37 Unknown 1.8096 1.3754 0.975402
O38 Unknown 1.6904 1.1246 0.975402
O66 Unknown 1.8737 1.6896 1.0073
O68 Unknown 1.6263 1.8104 1.0073
O78 Unknown 1.9094 1.2912 0.976097
O80 Unknown 1.5906 1.2088 0.976097
C13 C 1.8396 1.3109 0.976002
C14 C 1.6604 1.1891 0.976002
C37 C 1.7858 1.2445 0.975699
C38 C 1.7142 1.2555 0.975699
H13 H 1.8045 1.1958 0.975598
H14 H 1.6955 1.3042 0.975598
C61 C 1.8094 1.6602 1
C62 C 1.6906 1.8398 1
C85 C 1.7433 1.7135 0.999899
C86 C 1.7567 1.7865 0.999899
H37 H 1.6944 1.6954 0.999899
H38 H 1.8056 1.8046 0.999899
O98 Unknown 1.4235 1.9083 0.935301
O102 Unknown 1.9353 1.4235 0.908297
O157 Unknown 1.9215 1.5785 0.921502
O158 Unknown 1.5785 1.9215 0.921502
Zr2 Zr 1.36215 1.98887 1.01188
Zr6 Zr 2.01188 1.36215 0.98887
Zr8 Zr 1.48812 2.13785 0.98887
Zr12 Zr 1.98887 1.48812 1.13785
Zr14 Zr 1.63785 2.01113 0.988119
Zr18 Zr 1.98812 1.63785 1.01113
Zr20 Zr 1.51188 1.86215 1.01113
Zr24 Zr 2.01113 1.51188 0.862152
O6 Unknown 1.008 1.291 1.0915
O8 Unknown 1.492 1.209 1.0915
O54 Unknown 1.1263 1.3104 0.9927
O56 Unknown 1.3737 1.1896 0.9927
O85 Unknown 1.7912 1.4761 1.0906
O86 Unknown 1.7088 1.0239 1.0906
O104 Unknown 1.5647 2.0765 0.908297
O108 Unknown 1.9083 1.5647 1.0765
O109 Unknown 1.9235 1.4083 1.0647
O110 Unknown 1.5765 1.0917 1.0647
O117 Unknown 1.4083 2.0647 0.923498
Zr3 Zr 1.36215 1.51113 1.48812
Zr7 Zr 1.48812 1.36215 1.51113
Zr11 Zr 1.51113 1.48812 1.36215
Zr13 Zr 1.86215 1.48887 1.98812
Zr15 Zr 1.63785 1.48887 1.51188
Zr17 Zr 1.98812 1.86215 1.48887
Zr19 Zr 1.51188 1.63785 1.48887
Zr21 Zr 1.48887 1.98812 1.86215
Zr23 Zr 1.48887 1.51188 1.63785
O1 Unknown 1.209 1.4085 1.008
O3 Unknown 1.291 1.4085 1.492
O5 Unknown 1.008 1.209 1.4085
O7 Unknown 1.492 1.291 1.4085
O9 Unknown 1.4085 1.008 1.209
O11 Unknown 1.4085 1.492 1.291
O13 Unknown 1.791 1.5915 1.992
O14 Unknown 1.709 1.9085 1.992
O15 Unknown 1.709 1.5915 1.508
O16 Unknown 1.791 1.9085 1.508
O17 Unknown 1.992 1.791 1.5915
O18 Unknown 1.992 1.709 1.9085
O19 Unknown 1.508 1.709 1.5915
O20 Unknown 1.508 1.791 1.9085
O21 Unknown 1.5915 1.992 1.791
O22 Unknown 1.9085 1.992 1.709
O23 Unknown 1.5915 1.508 1.709
O24 Unknown 1.9085 1.508 1.791
O25 Unknown 1.1904 1.6246 1.0246
O26 Unknown 1.3096 1.8754 1.0246
O27 Unknown 1.3096 1.6246 1.4754
O28 Unknown 1.1904 1.8754 1.4754
O29 Unknown 1.0246 1.1904 1.6246
O30 Unknown 1.0246 1.3096 1.8754
O31 Unknown 1.4754 1.3096 1.6246
O32 Unknown 1.4754 1.1904 1.8754
O33 Unknown 1.6246 1.0246 1.1904
O34 Unknown 1.8754 1.0246 1.3096
O35 Unknown 1.6246 1.4754 1.3096
O36 Unknown 1.8754 1.4754 1.1904
O37 Unknown 1.8096 1.3754 1.9754
O38 Unknown 1.6904 1.1246 1.9754
O39 Unknown 1.6904 1.3754 1.5246
O40 Unknown 1.8096 1.1246 1.5246
O41 Unknown 1.9754 1.8096 1.3754
O42 Unknown 1.9754 1.6904 1.1246
O43 Unknown 1.5246 1.6904 1.3754
O44 Unknown 1.5246 1.8096 1.1246
O45 Unknown 1.3754 1.9754 1.8096
O46 Unknown 1.1246 1.9754 1.6904
O47 Unknown 1.3754 1.5246 1.6904
O48 Unknown 1.1246 1.5246 1.8096
O49 Unknown 1.1896 1.5073 1.1263
O51 Unknown 1.3104 1.5073 1.3737
O53 Unknown 1.1263 1.1896 1.5073
O55 Unknown 1.3737 1.3104 1.5073
O57 Unknown 1.5073 1.1263 1.1896
O59 Unknown 1.5073 1.3737 1.3104
O61 Unknown 1.8104 1.4927 1.8737
O62 Unknown 1.6896 2.0073 1.8737
O63 Unknown 1.6896 1.4927 1.6263
O64 Unknown 1.8104 2.0073 1.6263
O65 Unknown 1.8737 1.8104 1.4927
O66 Unknown 1.8737 1.6896 2.0073
O67 Unknown 1.6263 1.6896 1.4927
O68 Unknown 1.6263 1.8104 2.0073
O69 Unknown 1.4927 1.8737 1.8104
O70 Unknown 2.0073 1.8737 1.6896
O71 Unknown 1.4927 1.6263 1.6896
O72 Unknown 2.0073 1.6263 1.8104
O73 Unknown 1.2088 1.5239 1.9094
O74 Unknown 1.2912 1.9761 1.9094
O75 Unknown 1.2912 1.5239 1.5906
O76 Unknown 1.2088 1.9761 1.5906
O77 Unknown 1.9094 1.2088 1.5239
O78 Unknown 1.9094 1.2912 1.9761
O79 Unknown 1.5906 1.2912 1.5239
O80 Unknown 1.5906 1.2088 1.9761
O81 Unknown 1.5239 1.9094 1.2088
O82 Unknown 1.9761 1.9094 1.2912
O83 Unknown 1.5239 1.5906 1.2912
O84 Unknown 1.9761 1.5906 1.2088
O87 Unknown 1.7088 1.4761 1.4094
O88 Unknown 1.7912 1.0239 1.4094
O91 Unknown 1.4094 1.7088 1.4761
O92 Unknown 1.4094 1.7912 1.0239
O95 Unknown 1.4761 1.4094 1.7088
O96 Unknown 1.0239 1.4094 1.7912
C1 C 1.1604 1.6891 1.024
C2 C 1.3396 1.8109 1.024
C3 C 1.3396 1.6891 1.476
C4 C 1.1604 1.8109 1.476
C5 C 1.024 1.1604 1.6891
C6 C 1.024 1.3396 1.8109
C7 C 1.476 1.3396 1.6891
C8 C 1.476 1.1604 1.8109
C9 C 1.6891 1.024 1.1604
C10 C 1.8109 1.024 1.3396
C11 C 1.6891 1.476 1.3396
C12 C 1.8109 1.476 1.1604
C13 C 1.8396 1.3109 1.976
C14 C 1.6604 1.1891 1.976
C15 C 1.6604 1.3109 1.524
C16 C 1.8396 1.1891 1.524
C17 C 1.976 1.8396 1.3109
C18 C 1.976 1.6604 1.1891
C19 C 1.524 1.6604 1.3109
C20 C 1.524 1.8396 1.1891
C21 C 1.3109 1.976 1.8396
C22 C 1.1891 1.976 1.6604
C23 C 1.3109 1.524 1.6604
C24 C 1.1891 1.524 1.8396
C25 C 1.2142 1.7555 1.0243
C26 C 1.2858 1.7445 1.0243
C27 C 1.2858 1.7555 1.4757
C28 C 1.2142 1.7445 1.4757
C29 C 1.0243 1.2142 1.7555
C30 C 1.0243 1.2858 1.7445
C31 C 1.4757 1.2858 1.7555
C32 C 1.4757 1.2142 1.7445
C33 C 1.7555 1.0243 1.2142
C34 C 1.7445 1.0243 1.2858
C35 C 1.7555 1.4757 1.2858
C36 C 1.7445 1.4757 1.2142
C37 C 1.7858 1.2445 1.9757
C38 C 1.7142 1.2555 1.9757
C39 C 1.7142 1.2445 1.5243
C40 C 1.7858 1.2555 1.5243
C41 C 1.9757 1.7858 1.2445
C42 C 1.9757 1.7142 1.2555
C43 C 1.5243 1.7142 1.2445
C44 C 1.5243 1.7858 1.2555
C45 C 1.2445 1.9757 1.7858
C46 C 1.2555 1.9757 1.7142
C47 C 1.2445 1.5243 1.7142
C48 C 1.2555 1.5243 1.7858
H1 H 1.1955 1.8042 1.0244
H2 H 1.3045 1.6958 1.0244
H3 H 1.3045 1.8042 1.4756
H4 H 1.1955 1.6958 1.4756
H5 H 1.0244 1.1955 1.8042
H6 H 1.0244 1.3045 1.6958
H7 H 1.4756 1.3045 1.8042
H8 H 1.4756 1.1955 1.6958
H9 H 1.8042 1.0244 1.1955
H10 H 1.6958 1.0244 1.3045
H11 H 1.8042 1.4756 1.3045
H12 H 1.6958 1.4756 1.1955
H13 H 1.8045 1.1958 1.9756
H14 H 1.6955 1.3042 1.9756
H15 H 1.6955 1.1958 1.5244
H16 H 1.8045 1.3042 1.5244
H17 H 1.9756 1.8045 1.1958
H18 H 1.9756 1.6955 1.3042
H19 H 1.5244 1.6955 1.1958
H20 H 1.5244 1.8045 1.3042
H21 H 1.1958 1.9756 1.8045
H22 H 1.3042 1.9756 1.6955
H23 H 1.1958 1.5244 1.6955
H24 H 1.3042 1.5244 1.8045
C49 C 1.1906 1.3398 1
C50 C 1.3094 1.1602 1
C51 C 1.3094 1.3398 1.5
C52 C 1.1906 1.1602 1.5
C53 C 1 1.1906 1.3398
C54 C 1 1.3094 1.1602
C55 C 1.5 1.3094 1.3398
C56 C 1.5 1.1906 1.1602
C57 C 1.3398 1 1.1906
C58 C 1.1602 1 1.3094
C59 C 1.3398 1.5 1.3094
C60 C 1.1602 1.5 1.1906
C61 C 1.8094 1.6602 2
C62 C 1.6906 1.8398 2
C63 C 1.6906 1.6602 1.5
C64 C 1.8094 1.8398 1.5
C65 C 2 1.8094 1.6602
C66 C 2 1.6906 1.8398
C67 C 1.5 1.6906 1.6602
C68 C 1.5 1.8094 1.8398
C69 C 1.6602 2 1.8094
C70 C 1.8398 2 1.6906
C71 C 1.6602 1.5 1.6906
C72 C 1.8398 1.5 1.8094
C73 C 1.2567 1.2865 1.0001
C74 C 1.2433 1.2135 1.0001
C75 C 1.2433 1.2865 1.4999
C76 C 1.2567 1.2135 1.4999
C77 C 1.0001 1.2567 1.2865
C78 C 1.0001 1.2433 1.2135
C79 C 1.4999 1.2433 1.2865
C80 C 1.4999 1.2567 1.2135
C81 C 1.2865 1.0001 1.2567
C82 C 1.2135 1.0001 1.2433
C83 C 1.2865 1.4999 1.2433
C84 C 1.2135 1.4999 1.2567
C85 C 1.7433 1.7135 1.9999
C86 C 1.7567 1.7865 1.9999
C87 C 1.7567 1.7135 1.5001
C88 C 1.7433 1.7865 1.5001
C89 C 1.9999 1.7433 1.7135
C90 C 1.9999 1.7567 1.7865
C91 C 1.5001 1.7567 1.7135
C92 C 1.5001 1.7433 1.7865
C93 C 1.7135 1.9999 1.7433
C94 C 1.7865 1.9999 1.7567
C95 C 1.7135 1.5001 1.7567
C96 C 1.7865 1.5001 1.7433
H25 H 1.3056 1.3046 1.0001
H26 H 1.1944 1.1954 1.0001
H27 H 1.1944 1.3046 1.4999
H28 H 1.3056 1.1954 1.4999
H29 H 1.0001 1.3056 1.3046
H30 H 1.0001 1.1944 1.1954
H31 H 1.4999 1.1944 1.3046
H32 H 1.4999 1.3056 1.1954
H33 H 1.3046 1.0001 1.3056
H34 H 1.1954 1.0001 1.1944
H35 H 1.3046 1.4999 1.1944
H36 H 1.1954 1.4999 1.3056
H37 H 1.6944 1.6954 1.9999
H38 H 1.8056 1.8046 1.9999
H39 H 1.8056 1.6954 1.5001
H40 H 1.6944 1.8046 1.5001
H41 H 1.9999 1.6944 1.6954
H42 H 1.9999 1.8056 1.8046
H43 H 1.5001 1.8056 1.6954
H44 H 1.5001 1.6944 1.8046
H45 H 1.6954 1.9999 1.6944
H46 H 1.8046 1.9999 1.8056
H47 H 1.6954 1.5001 1.8056
H48 H 1.8046 1.5001 1.6944
O98 Unknown 1.4235 1.9083 1.9353
O99 Unknown 1.4235 1.5917 1.5647
O101 Unknown 1.9353 1.0765 1.5917
O102 Unknown 1.9353 1.4235 1.9083
O103 Unknown 1.5647 1.4235 1.5917
O105 Unknown 1.5917 1.9353 1.0765
O106 Unknown 1.9083 1.9353 1.4235
O107 Unknown 1.5917 1.5647 1.4235
O111 Unknown 1.5765 1.4083 1.4353
O112 Unknown 1.9235 1.0917 1.4353
O115 Unknown 1.4353 1.5765 1.4083
O116 Unknown 1.4353 1.9235 1.0917
O119 Unknown 1.4083 1.4353 1.5765
O155 Unknown 1.4215 1.4215 1.4215
O157 Unknown 1.9215 1.5785 1.9215
O158 Unknown 1.5785 1.9215 1.9215
O159 Unknown 1.5785 1.5785 1.5785
O160 Unknown 1.9215 1.9215 1.5785
Zr1 Zr 2.13785 1.51113 1.01188
Zr2 Zr 1.36215 1.98887 2.01188
Zr4 Zr 2.13785 1.98887 1.48812
Zr5 Zr 2.01188 1.13785 1.51113
Zr6 Zr 2.01188 1.36215 1.98887
Zr8 Zr 1.48812 2.13785 1.98887
Zr9 Zr 1.51113 2.01188 1.13785
Zr10 Zr 1.98887 2.01188 1.36215
Zr12 Zr 1.98887 1.48812 2.13785
Zr14 Zr 1.63785 2.01113 1.98812
Zr16 Zr 1.86215 2.01113 1.51188
Zr18 Zr 1.98812 1.63785 2.01113
Zr20 Zr 1.51188 1.86215 2.01113
Zr22 Zr 2.01113 1.98812 1.63785
Zr24 Zr 2.01113 1.51188 1.86215
O50 Unknown 1.3104 1.9927 1.1263
O52 Unknown 1.1896 1.9927 1.3737
O54 Unknown 1.1263 1.3104 1.9927
O56 Unknown 1.3737 1.1896 1.9927
O58 Unknown 1.9927 1.1263 1.3104
O60 Unknown 1.9927 1.3737 1.1896
O97 Unknown 2.0765 1.5917 0.935301
O100 Unknown 2.0765 1.9083 1.5647
O104 Unknown 1.5647 2.0765 1.9083
O108 Unknown 1.9083 1.5647 2.0765
O109 Unknown 1.9235 1.4083 2.0647
O110 Unknown 1.5765 1.0917 2.0647
O113 Unknown 2.0647 1.9235 1.4083
O114 Unknown 2.0647 1.5765 1.0917
O117 Unknown 1.4083 2.0647 1.9235
O118 Unknown 1.0917 2.0647 1.5765
O120 Unknown 1.0917 1.4353 0.923498
O153 Unknown 2.0785 1.4215 1.0785
O154 Unknown 1.4215 2.0785 1.0785
O156 Unknown 2.0785 1.0785 1.4215
O1 Unknown 1.209 1.4085 2.008
O25 Unknown 1.1904 1.6246 2.0246
O26 Unknown 1.3096 1.8754 2.0246
O92 Unknown 1.4094 1.7912 2.0239
C1 C 1.1604 1.6891 2.024
C2 C 1.3396 1.8109 2.024
C25 C 1.2142 1.7555 2.0243
C26 C 1.2858 1.7445 2.0243
H1 H 1.1955 1.8042 2.0244
H2 H 1.3045 1.6958 2.0244
C49 C 1.1906 1.3398 2
C50 C 1.3094 1.1602 2
C73 C 1.2567 1.2865 2.0001
C74 C 1.2433 1.2135 2.0001
H25 H 1.3056 1.3046 2.0001
H26 H 1.1944 1.1954 2.0001
O105 Unknown 1.5917 1.9353 2.0765
O116 Unknown 1.4353 1.9235 2.0917
Zr1 Zr 2.13785 1.51113 2.01188
Zr9 Zr 1.51113 2.01188 2.13785
O97 Unknown 2.0765 1.5917 1.9353
O114 Unknown 2.0647 1.5765 2.0917
O120 Unknown 1.0917 1.4353 1.9235
O153 Unknown 2.0785 1.4215 2.0785
O154 Unknown 1.4215 2.0785 2.0785
O86 Unknown 1.7088 2.0239 1.0906
O110 Unknown 1.5765 2.0917 1.0647
O9 Unknown 1.4085 2.008 1.209
O33 Unknown 1.6246 2.0246 1.1904
O34 Unknown 1.8754 2.0246 1.3096
O88 Unknown 1.7912 2.0239 1.4094
C9 C 1.6891 2.024 1.1604
C10 C 1.8109 2.024 1.3396
C33 C 1.7555 2.0243 1.2142
C34 C 1.7445 2.0243 1.2858
H9 H 1.8042 2.0244 1.1955
H10 H 1.6958 2.0244 1.3045
C57 C 1.3398 2 1.1906
C58 C 1.1602 2 1.3094
C81 C 1.2865 2.0001 1.2567
C82 C 1.2135 2.0001 1.2433
H33 H 1.3046 2.0001 1.3056
H34 H 1.1954 2.0001 1.1944
O101 Unknown 1.9353 2.0765 1.5917
O112 Unknown 1.9235 2.0917 1.4353
Zr5 Zr 2.01188 2.13785 1.51113
O110 Unknown 1.5765 2.0917 2.0647
O156 Unknown 2.0785 2.0785 1.4215
O94 Unknown 2.0239 1.0906 1.7088
O118 Unknown 2.0917 1.0647 1.5765
O6 Unknown 2.008 1.291 1.0915
O5 Unknown 2.008 1.209 1.4085
O29 Unknown 2.0246 1.1904 1.6246
O30 Unknown 2.0246 1.3096 1.8754
O96 Unknown 2.0239 1.4094 1.7912
C5 C 2.024 1.1604 1.6891
C6 C 2.024 1.3396 1.8109
C29 C 2.0243 1.2142 1.7555
C30 C 2.0243 1.2858 1.7445
H5 H 2.0244 1.1955 1.8042
H6 H 2.0244 1.3045 1.6958
C53 C 2 1.1906 1.3398
C54 C 2 1.3094 1.1602
C77 C 2.0001 1.2567 1.2865
C78 C 2.0001 1.2433 1.2135
H29 H 2.0001 1.3056 1.3046
H30 H 2.0001 1.1944 1.1954
O118 Unknown 2.0917 2.0647 1.5765
O120 Unknown 2.0917 1.4353 0.923498
O120 Unknown 2.0917 1.4353 1.9235
H7 Unknown 2.14863 1.41576 1.91288
H7 Unknown 2.14176 1.41812 0.89294
H7 Unknown 1.91912 2.14445 1.40474
H7 Unknown 1.93093 2.12925 1.62226
H7 Unknown 1.40572 2.11447 2.12532
H7 Unknown 2.1095 1.39737 2.12532
H7 Unknown 1.12462 1.38492 1.91288
H7 Unknown 1.63099 1.9353 2.12332
H7 Unknown 1.39732 2.13362 1.08911
H7 Unknown 2.126 1.38453 1.08911
H7 Unknown 1.10314 1.4178 0.866065
H7 Unknown 1.36753 2.10898 1.91288
H7 Unknown 2.11476 1.90631 1.37774
H7 Unknown 1.8999 1.58384 2.13393
H7 Unknown 2.12656 1.89111 1.59526
H7 Unknown 1.63543 1.90196 1.91089
H7 Unknown 1.89732 1.63362 1.91089
H7 Unknown 1.4087 1.60541 1.36148
H7 Unknown 1.90772 1.12768 1.38848
H7 Unknown 1.60545 1.36399 1.40474
H7 Unknown 1.65189 1.9353 1.08712
H7 Unknown 1.58619 1.39061 1.63852
H7 Unknown 1.93357 1.09733 1.64914
H7 Unknown 1.38765 1.63064 1.59526
H7 Unknown 1.38169 2.0936 0.876679
H7 Unknown 1.88412 1.61982 1.08712
H7 Unknown 1.61566 1.90875 0.874683
H7 Unknown 1.90572 1.61447 0.874683
H7 Unknown 1.38275 1.08496 2.12532
H7 Unknown 1.61319 0.90241 2.12332
H7 Unknown 1.36213 1.08841 1.08911
H7 Unknown 1.34893 1.07461 1.91288
H7 Unknown 2.09365 0.879186 1.37774
H7 Unknown 2.10942 0.857913 1.57531
H7 Unknown 1.61142 0.871117 1.91089
H7 Unknown 1.62462 0.884916 1.08712
H7 Unknown 1.36955 1.07116 0.876679
H7 Unknown 1.59998 0.888611 0.874683
H7 Unknown 0.882735 2.13599 1.42469
H7 Unknown 0.899455 2.11544 1.62226
H7 Unknown 1.08814 1.38342 2.12532
H7 Unknown 1.09327 1.36316 1.08911
H7 Unknown 1.06983 1.90323 1.35086
H7 Unknown 0.861748 1.58989 2.10706
H7 Unknown 1.08615 1.87021 1.61152
H7 Unknown 0.868566 1.60714 1.91089
H7 Unknown 0.871291 1.10042 1.40474
H7 Unknown 0.883094 1.08522 1.62226
H7 Unknown 0.855361 1.59335 1.08712
H7 Unknown 0.886951 1.5972 0.874683
H7 Unknown 1.07769 0.872188 1.37774
H7 Unknown 1.08949 0.856987 1.59526

#END
