
#######################################################################
#
#                 Cambridge Crystallographic Data Centre
#                                CCDC 
#
#######################################################################
#
# If this CIF has been generated from an entry in the Cambridge 
# Structural Database, then it will include bibliographic, chemical, 
# crystal, experimental, refinement or atomic coordinate data resulting 
# from the CCDC's data processing and validation procedures.
#
#######################################################################

data_MOL
_symmetry_cell_setting           triclinic
_symmetry_space_group_name_H-M   'P 1'
_symmetry_Int_Tables_number      1
_space_group_name_Hall           'P 1'
loop_
_symmetry_equiv_pos_site_id
_symmetry_equiv_pos_as_xyz
1 x,y,z
_cell_length_a                   17.8348
_cell_length_b                   17.8348
_cell_length_c                   17.8348
_cell_angle_alpha                90
_cell_angle_beta                 90
_cell_angle_gamma                90
_cell_volume                     5672.89
loop_
_atom_site_label
_atom_site_type_symbol
_atom_site_fract_x
_atom_site_fract_y
_atom_site_fract_z
Zr4 Zr 2.13785 1.98887 2.48812
Zr10 Zr 1.98887 2.01188 2.36215
Zr22 Zr 2.01113 1.98812 2.63785
Zr6 Zr 2.01188 2.36215 1.98887
Zr12 Zr 1.98887 2.48812 2.13785
Zr18 Zr 1.98812 2.63785 2.01113
Zr17 Zr 1.98812 2.86215 2.48887
O17 O 1.992 2.791 2.5915
O18 O 1.992 2.709 2.9085
O41 O 1.9754 2.8096 2.3754
O42 O 1.9754 2.6904 2.1246
O70 O 2.0073 2.8737 2.6896
O72 O 2.0073 2.6263 2.8104
O82 O 1.9761 2.9094 2.2912
O84 O 1.9761 2.5906 2.2088
C17 C 1.976 2.8396 2.3109
C18 C 1.976 2.6604 2.1891
C41 C 1.9757 2.7858 2.2445
C42 C 1.9757 2.7142 2.2555
H17 H 1.9756 2.8045 2.1958
H18 H 1.9756 2.6955 2.3042
C65 C 2 2.8094 2.6602
C66 C 2 2.6906 2.8398
C89 C 1.9999 2.7433 2.7135
C90 C 1.9999 2.7567 2.7865
H41 H 1.9999 2.6944 2.6954
H42 H 1.9999 2.8056 2.8046
Zr1 Zr 2.13785 2.51113 2.01188
Zr4 Zr 2.13785 2.98887 2.48812
Zr5 Zr 2.01188 2.13785 2.51113
Zr6 Zr 2.01188 2.36215 2.98887
Zr10 Zr 1.98887 3.01188 2.36215
Zr18 Zr 1.98812 2.63785 3.01113
Zr22 Zr 2.01113 2.98812 2.63785
Zr24 Zr 2.01113 2.51188 2.86215
O10 O 2.0915 2.008 2.291
O12 O 2.0915 2.492 2.209
O58 O 1.9927 2.1263 2.3104
O60 O 1.9927 2.3737 2.1896
O89 O 2.0906 2.7912 2.4761
O90 O 2.0906 2.7088 2.0239
O100 O 2.0765 2.9083 2.5647
O113 O 2.0647 2.9235 2.4083
O114 O 2.0647 2.5765 2.0917
O153 O 2.0785 2.4215 2.0785
O156 O 2.0785 2.0785 2.4215
Zr1 Zr 2.13785 2.51113 3.01188
O97 O 2.0765 2.5917 2.9353
O10 O 2.0915 3.008 2.291
Zr2 Zr 2.36215 1.98887 2.01188
Zr8 Zr 2.48812 2.13785 1.98887
Zr14 Zr 2.63785 2.01113 1.98812
Zr21 Zr 2.48887 1.98812 2.86215
O21 O 2.5915 1.992 2.791
O22 O 2.9085 1.992 2.709
O45 O 2.3754 1.9754 2.8096
O46 O 2.1246 1.9754 2.6904
O62 O 2.6896 2.0073 2.8737
O64 O 2.8104 2.0073 2.6263
O74 O 2.2912 1.9761 2.9094
O76 O 2.2088 1.9761 2.5906
C21 C 2.3109 1.976 2.8396
C22 C 2.1891 1.976 2.6604
C45 C 2.2445 1.9757 2.7858
C46 C 2.2555 1.9757 2.7142
H21 H 2.1958 1.9756 2.8045
H22 H 2.3042 1.9756 2.6955
C69 C 2.6602 2 2.8094
C70 C 2.8398 2 2.6906
C93 C 2.7135 1.9999 2.7433
C94 C 2.7865 1.9999 2.7567
H45 H 2.6954 1.9999 2.6944
H46 H 2.8046 1.9999 2.8056
Zr2 Zr 2.36215 1.98887 3.01188
Zr8 Zr 2.48812 2.13785 2.98887
Zr9 Zr 2.51113 2.01188 2.13785
Zr10 Zr 2.98887 2.01188 2.36215
Zr14 Zr 2.63785 2.01113 2.98812
Zr16 Zr 2.86215 2.01113 2.51188
Zr22 Zr 3.01113 1.98812 2.63785
O2 O 2.291 2.0915 2.008
O4 O 2.209 2.0915 2.492
O50 O 2.3104 1.9927 2.1263
O52 O 2.1896 1.9927 2.3737
O93 O 2.4761 2.0906 2.7912
O94 O 2.0239 2.0906 2.7088
O104 O 2.5647 2.0765 2.9083
O117 O 2.4083 2.0647 2.9235
O118 O 2.0917 2.0647 2.5765
O154 O 2.4215 2.0785 2.0785
O2 O 2.291 2.0915 3.008
Zr13 Zr 2.86215 2.48887 1.98812
O13 O 2.791 2.5915 1.992
O14 O 2.709 2.9085 1.992
O37 O 2.8096 2.3754 1.9754
O38 O 2.6904 2.1246 1.9754
O66 O 2.8737 2.6896 2.0073
O68 O 2.6263 2.8104 2.0073
O78 O 2.9094 2.2912 1.9761
O80 O 2.5906 2.2088 1.9761
C13 C 2.8396 2.3109 1.976
C14 C 2.6604 2.1891 1.976
C37 C 2.7858 2.2445 1.9757
C38 C 2.7142 2.2555 1.9757
H13 H 2.8045 2.1958 1.9756
H14 H 2.6955 2.3042 1.9756
C61 C 2.8094 2.6602 2
C62 C 2.6906 2.8398 2
C85 C 2.7433 2.7135 1.9999
C86 C 2.7567 2.7865 1.9999
H37 H 2.6944 2.6954 1.9999
H38 H 2.8056 2.8046 1.9999
Zr2 Zr 2.36215 2.98887 2.01188
Zr6 Zr 3.01188 2.36215 1.98887
Zr12 Zr 2.98887 2.48812 2.13785
Zr14 Zr 2.63785 3.01113 1.98812
Zr18 Zr 2.98812 2.63785 2.01113
Zr20 Zr 2.51188 2.86215 2.01113
O6 O 2.008 2.291 2.0915
O8 O 2.492 2.209 2.0915
O54 O 2.1263 2.3104 1.9927
O56 O 2.3737 2.1896 1.9927
O85 O 2.7912 2.4761 2.0906
O86 O 2.7088 2.0239 2.0906
O108 O 2.9083 2.5647 2.0765
O109 O 2.9235 2.4083 2.0647
O110 O 2.5765 2.0917 2.0647
Zr3 Zr 2.36215 2.51113 2.48812
Zr7 Zr 2.48812 2.36215 2.51113
Zr11 Zr 2.51113 2.48812 2.36215
Zr13 Zr 2.86215 2.48887 2.98812
Zr15 Zr 2.63785 2.48887 2.51188
Zr17 Zr 2.98812 2.86215 2.48887
Zr19 Zr 2.51188 2.63785 2.48887
Zr21 Zr 2.48887 2.98812 2.86215
Zr23 Zr 2.48887 2.51188 2.63785
O1 O 2.209 2.4085 2.008
O3 O 2.291 2.4085 2.492
O5 O 2.008 2.209 2.4085
O7 O 2.492 2.291 2.4085
O9 O 2.4085 2.008 2.209
O11 O 2.4085 2.492 2.291
O13 O 2.791 2.5915 2.992
O14 O 2.709 2.9085 2.992
O15 O 2.709 2.5915 2.508
O16 O 2.791 2.9085 2.508
O17 O 2.992 2.791 2.5915
O18 O 2.992 2.709 2.9085
O19 O 2.508 2.709 2.5915
O20 O 2.508 2.791 2.9085
O21 O 2.5915 2.992 2.791
O22 O 2.9085 2.992 2.709
O23 O 2.5915 2.508 2.709
O24 O 2.9085 2.508 2.791
O25 O 2.1904 2.6246 2.0246
O26 O 2.3096 2.8754 2.0246
O27 O 2.3096 2.6246 2.4754
O28 O 2.1904 2.8754 2.4754
O29 O 2.0246 2.1904 2.6246
O30 O 2.0246 2.3096 2.8754
O31 O 2.4754 2.3096 2.6246
O32 O 2.4754 2.1904 2.8754
O33 O 2.6246 2.0246 2.1904
O34 O 2.8754 2.0246 2.3096
O35 O 2.6246 2.4754 2.3096
O36 O 2.8754 2.4754 2.1904
O37 O 2.8096 2.3754 2.9754
O38 O 2.6904 2.1246 2.9754
O39 O 2.6904 2.3754 2.5246
O40 O 2.8096 2.1246 2.5246
O41 O 2.9754 2.8096 2.3754
O42 O 2.9754 2.6904 2.1246
O43 O 2.5246 2.6904 2.3754
O44 O 2.5246 2.8096 2.1246
O45 O 2.3754 2.9754 2.8096
O46 O 2.1246 2.9754 2.6904
O47 O 2.3754 2.5246 2.6904
O48 O 2.1246 2.5246 2.8096
O49 O 2.1896 2.5073 2.1263
O51 O 2.3104 2.5073 2.3737
O53 O 2.1263 2.1896 2.5073
O55 O 2.3737 2.3104 2.5073
O57 O 2.5073 2.1263 2.1896
O59 O 2.5073 2.3737 2.3104
O61 O 2.8104 2.4927 2.8737
O62 O 2.6896 3.0073 2.8737
O63 O 2.6896 2.4927 2.6263
O64 O 2.8104 3.0073 2.6263
O65 O 2.8737 2.8104 2.4927
O66 O 2.8737 2.6896 3.0073
O67 O 2.6263 2.6896 2.4927
O68 O 2.6263 2.8104 3.0073
O69 O 2.4927 2.8737 2.8104
O70 O 3.0073 2.8737 2.6896
O71 O 2.4927 2.6263 2.6896
O72 O 3.0073 2.6263 2.8104
O73 O 2.2088 2.5239 2.9094
O74 O 2.2912 2.9761 2.9094
O75 O 2.2912 2.5239 2.5906
O76 O 2.2088 2.9761 2.5906
O77 O 2.9094 2.2088 2.5239
O78 O 2.9094 2.2912 2.9761
O79 O 2.5906 2.2912 2.5239
O80 O 2.5906 2.2088 2.9761
O81 O 2.5239 2.9094 2.2088
O82 O 2.9761 2.9094 2.2912
O83 O 2.5239 2.5906 2.2912
O84 O 2.9761 2.5906 2.2088
O87 O 2.7088 2.4761 2.4094
O88 O 2.7912 2.0239 2.4094
O91 O 2.4094 2.7088 2.4761
O92 O 2.4094 2.7912 2.0239
O95 O 2.4761 2.4094 2.7088
O96 O 2.0239 2.4094 2.7912
C1 C 2.1604 2.6891 2.024
C2 C 2.3396 2.8109 2.024
C3 C 2.3396 2.6891 2.476
C4 C 2.1604 2.8109 2.476
C5 C 2.024 2.1604 2.6891
C6 C 2.024 2.3396 2.8109
C7 C 2.476 2.3396 2.6891
C8 C 2.476 2.1604 2.8109
C9 C 2.6891 2.024 2.1604
C10 C 2.8109 2.024 2.3396
C11 C 2.6891 2.476 2.3396
C12 C 2.8109 2.476 2.1604
C13 C 2.8396 2.3109 2.976
C14 C 2.6604 2.1891 2.976
C15 C 2.6604 2.3109 2.524
C16 C 2.8396 2.1891 2.524
C17 C 2.976 2.8396 2.3109
C18 C 2.976 2.6604 2.1891
C19 C 2.524 2.6604 2.3109
C20 C 2.524 2.8396 2.1891
C21 C 2.3109 2.976 2.8396
C22 C 2.1891 2.976 2.6604
C23 C 2.3109 2.524 2.6604
C24 C 2.1891 2.524 2.8396
C25 C 2.2142 2.7555 2.0243
C26 C 2.2858 2.7445 2.0243
C27 C 2.2858 2.7555 2.4757
C28 C 2.2142 2.7445 2.4757
C29 C 2.0243 2.2142 2.7555
C30 C 2.0243 2.2858 2.7445
C31 C 2.4757 2.2858 2.7555
C32 C 2.4757 2.2142 2.7445
C33 C 2.7555 2.0243 2.2142
C34 C 2.7445 2.0243 2.2858
C35 C 2.7555 2.4757 2.2858
C36 C 2.7445 2.4757 2.2142
C37 C 2.7858 2.2445 2.9757
C38 C 2.7142 2.2555 2.9757
C39 C 2.7142 2.2445 2.5243
C40 C 2.7858 2.2555 2.5243
C41 C 2.9757 2.7858 2.2445
C42 C 2.9757 2.7142 2.2555
C43 C 2.5243 2.7142 2.2445
C44 C 2.5243 2.7858 2.2555
C45 C 2.2445 2.9757 2.7858
C46 C 2.2555 2.9757 2.7142
C47 C 2.2445 2.5243 2.7142
C48 C 2.2555 2.5243 2.7858
H1 H 2.1955 2.8042 2.0244
H2 H 2.3045 2.6958 2.0244
H3 H 2.3045 2.8042 2.4756
H4 H 2.1955 2.6958 2.4756
H5 H 2.0244 2.1955 2.8042
H6 H 2.0244 2.3045 2.6958
H7 H 2.4756 2.3045 2.8042
H8 H 2.4756 2.1955 2.6958
H9 H 2.8042 2.0244 2.1955
H10 H 2.6958 2.0244 2.3045
H11 H 2.8042 2.4756 2.3045
H12 H 2.6958 2.4756 2.1955
H13 H 2.8045 2.1958 2.9756
H14 H 2.6955 2.3042 2.9756
H15 H 2.6955 2.1958 2.5244
H16 H 2.8045 2.3042 2.5244
H17 H 2.9756 2.8045 2.1958
H18 H 2.9756 2.6955 2.3042
H19 H 2.5244 2.6955 2.1958
H20 H 2.5244 2.8045 2.3042
H21 H 2.1958 2.9756 2.8045
H22 H 2.3042 2.9756 2.6955
H23 H 2.1958 2.5244 2.6955
H24 H 2.3042 2.5244 2.8045
C49 C 2.1906 2.3398 2
C50 C 2.3094 2.1602 2
C51 C 2.3094 2.3398 2.5
C52 C 2.1906 2.1602 2.5
C53 C 2 2.1906 2.3398
C54 C 2 2.3094 2.1602
C55 C 2.5 2.3094 2.3398
C56 C 2.5 2.1906 2.1602
C57 C 2.3398 2 2.1906
C58 C 2.1602 2 2.3094
C59 C 2.3398 2.5 2.3094
C60 C 2.1602 2.5 2.1906
C61 C 2.8094 2.6602 3
C62 C 2.6906 2.8398 3
C63 C 2.6906 2.6602 2.5
C64 C 2.8094 2.8398 2.5
C65 C 3 2.8094 2.6602
C66 C 3 2.6906 2.8398
C67 C 2.5 2.6906 2.6602
C68 C 2.5 2.8094 2.8398
C69 C 2.6602 3 2.8094
C70 C 2.8398 3 2.6906
C71 C 2.6602 2.5 2.6906
C72 C 2.8398 2.5 2.8094
C73 C 2.2567 2.2865 2.0001
C74 C 2.2433 2.2135 2.0001
C75 C 2.2433 2.2865 2.4999
C76 C 2.2567 2.2135 2.4999
C77 C 2.0001 2.2567 2.2865
C78 C 2.0001 2.2433 2.2135
C79 C 2.4999 2.2433 2.2865
C80 C 2.4999 2.2567 2.2135
C81 C 2.2865 2.0001 2.2567
C82 C 2.2135 2.0001 2.2433
C83 C 2.2865 2.4999 2.2433
C84 C 2.2135 2.4999 2.2567
C85 C 2.7433 2.7135 2.9999
C86 C 2.7567 2.7865 2.9999
C87 C 2.7567 2.7135 2.5001
C88 C 2.7433 2.7865 2.5001
C89 C 2.9999 2.7433 2.7135
C90 C 2.9999 2.7567 2.7865
C91 C 2.5001 2.7567 2.7135
C92 C 2.5001 2.7433 2.7865
C93 C 2.7135 2.9999 2.7433
C94 C 2.7865 2.9999 2.7567
C95 C 2.7135 2.5001 2.7567
C96 C 2.7865 2.5001 2.7433
H25 H 2.3056 2.3046 2.0001
H26 H 2.1944 2.1954 2.0001
H27 H 2.1944 2.3046 2.4999
H28 H 2.3056 2.1954 2.4999
H29 H 2.0001 2.3056 2.3046
H30 H 2.0001 2.1944 2.1954
H31 H 2.4999 2.1944 2.3046
H32 H 2.4999 2.3056 2.1954
H33 H 2.3046 2.0001 2.3056
H34 H 2.1954 2.0001 2.1944
H35 H 2.3046 2.4999 2.1944
H36 H 2.1954 2.4999 2.3056
H37 H 2.6944 2.6954 2.9999
H38 H 2.8056 2.8046 2.9999
H39 H 2.8056 2.6954 2.5001
H40 H 2.6944 2.8046 2.5001
H41 H 2.9999 2.6944 2.6954
H42 H 2.9999 2.8056 2.8046
H43 H 2.5001 2.8056 2.6954
H44 H 2.5001 2.6944 2.8046
H45 H 2.6954 2.9999 2.6944
H46 H 2.8046 2.9999 2.8056
H47 H 2.6954 2.5001 2.8056
H48 H 2.8046 2.5001 2.6944
O98 O 2.4235 2.9083 2.9353
O99 O 2.4235 2.5917 2.5647
O101 O 2.9353 2.0765 2.5917
O102 O 2.9353 2.4235 2.9083
O103 O 2.5647 2.4235 2.5917
O105 O 2.5917 2.9353 2.0765
O106 O 2.9083 2.9353 2.4235
O107 O 2.5917 2.5647 2.4235
O111 O 2.5765 2.4083 2.4353
O112 O 2.9235 2.0917 2.4353
O115 O 2.4353 2.5765 2.4083
O116 O 2.4353 2.9235 2.0917
O119 O 2.4083 2.4353 2.5765
O155 O 2.4215 2.4215 2.4215
O157 O 2.9215 2.5785 2.9215
O158 O 2.5785 2.9215 2.9215
O159 O 2.5785 2.5785 2.5785
O160 O 2.9215 2.9215 2.5785
Zr2 Zr 2.36215 2.98887 3.01188
Zr5 Zr 3.01188 2.13785 2.51113
Zr6 Zr 3.01188 2.36215 2.98887
Zr9 Zr 2.51113 3.01188 2.13785
Zr10 Zr 2.98887 3.01188 2.36215
Zr14 Zr 2.63785 3.01113 2.98812
Zr16 Zr 2.86215 3.01113 2.51188
Zr18 Zr 2.98812 2.63785 3.01113
Zr20 Zr 2.51188 2.86215 3.01113
Zr22 Zr 3.01113 2.98812 2.63785
Zr24 Zr 3.01113 2.51188 2.86215
O50 O 2.3104 2.9927 2.1263
O52 O 2.1896 2.9927 2.3737
O54 O 2.1263 2.3104 2.9927
O56 O 2.3737 2.1896 2.9927
O58 O 2.9927 2.1263 2.3104
O60 O 2.9927 2.3737 2.1896
O1 O 2.209 2.4085 3.008
C49 C 2.1906 2.3398 3
C50 C 2.3094 2.1602 3
C73 C 2.2567 2.2865 3.0001
C74 C 2.2433 2.2135 3.0001
H25 H 2.3056 2.3046 3.0001
H26 H 2.1944 2.1954 3.0001
O120 O 2.0917 2.4353 2.9235
O9 O 2.4085 3.008 2.209
C57 C 2.3398 3 2.1906
C58 C 2.1602 3 2.3094
C81 C 2.2865 3.0001 2.2567
C82 C 2.2135 3.0001 2.2433
H33 H 2.3046 3.0001 2.3056
H34 H 2.1954 3.0001 2.1944
O6 O 3.008 2.291 2.0915
O5 O 3.008 2.209 2.4085
C53 C 3 2.1906 2.3398
C54 C 3 2.3094 2.1602
C77 C 3.0001 2.2567 2.2865
C78 C 3.0001 2.2433 2.2135
H29 H 3.0001 2.3056 2.3046
H30 H 3.0001 2.1944 2.1954
H7 H 2.12462 2.38492 2.91288
H7 H 2.63543 2.90196 2.91089
H7 H 2.89732 2.63362 2.91089
H7 H 2.4087 2.60541 2.36148
H7 H 2.90772 2.12768 2.38848
H7 H 2.60545 2.36399 2.40474
H7 H 2.65189 2.9353 2.08712
H7 H 2.58619 2.39061 2.63852
H7 H 2.93357 2.09733 2.64914
H7 H 2.38765 2.63064 2.59526
H7 H 2.88412 2.61982 2.08712
H7 H 2.36213 2.08841 2.08911
H7 H 2.34893 2.07461 2.91288
H7 H 2.09327 2.36316 2.08911
H7 H 2.06983 2.90323 2.35086
H7 H 2.08615 2.87021 2.61152

#END
