data_image0
_cell_length_a       17.8348
_cell_length_b       17.8348
_cell_length_c       17.8348
_cell_angle_alpha    90
_cell_angle_beta     90
_cell_angle_gamma    90

_symmetry_space_group_name_H-M    "P 1"
_symmetry_int_tables_number       1

loop_
  _symmetry_equiv_pos_as_xyz
  'x, y, z'

loop_
  _atom_site_label
  _atom_site_occupancy
  _atom_site_fract_x
  _atom_site_fract_y
  _atom_site_fract_z
  _atom_site_thermal_displace_type
  _atom_site_B_iso_or_equiv
  _atom_site_type_symbol
  _atom_site_charge
  Zr1      1.0000 0.13785  0.98887  0.48812  Biso   1.000  Zr  2.376644
  Zr2      1.0000 0.98887  0.01188  0.36215  Biso   1.000  Zr  2.136710
  Zr3      1.0000 0.01113  0.98812  0.63785  Biso   1.000  Zr  2.139547
  Zr4      1.0000 0.01188  0.36215  0.98887  Biso   1.000  Zr  2.146985
  Zr5      1.0000 0.98887  0.48812  0.13785  Biso   1.000  Zr  2.376644
  Zr6      1.0000 0.98812  0.63785  0.01113  Biso   1.000  Zr  2.146978
  Zr7      1.0000 0.98812  0.86215  0.48887  Biso   1.000  Zr  2.376644
  O1       1.0000 0.99200  0.79100  0.59150  Biso   1.000  O  -0.594486
  O2       1.0000 0.99200  0.70900  0.90850  Biso   1.000  O  -0.616223
  O3       1.0000 0.97540  0.80960  0.37540  Biso   1.000  O  -0.595235
  O4       1.0000 0.97540  0.69040  0.12460  Biso   1.000  O  -0.615730
  O5       1.0000 0.00730  0.87370  0.68960  Biso   1.000  O  -0.615997
  O6       1.0000 0.00730  0.62630  0.81040  Biso   1.000  O  -0.594341
  O7       1.0000 0.97610  0.90940  0.29120  Biso   1.000  O  -0.616955
  O8       1.0000 0.97610  0.59060  0.20880  Biso   1.000  O  -0.595606
  C1       1.0000 0.97600  0.83960  0.31090  Biso   1.000  C  0.632608
  C2       1.0000 0.97600  0.66040  0.18910  Biso   1.000  C  0.632608
  C3       1.0000 0.97570  0.78580  0.24450  Biso   1.000  C  -0.225776
  C4       1.0000 0.97570  0.71420  0.25550  Biso   1.000  C  -0.225776
  H1       1.0000 0.97560  0.80450  0.19580  Biso   1.000  H  0.135560
  H2       1.0000 0.97560  0.69550  0.30420  Biso   1.000  H  0.135560
  C5       1.0000 0.00000  0.80940  0.66020  Biso   1.000  C  0.661763
  C6       1.0000 0.00000  0.69060  0.83980  Biso   1.000  C  0.661763
  C7       1.0000 0.99990  0.74330  0.71350  Biso   1.000  C  -0.227205
  C8       1.0000 0.99990  0.75670  0.78650  Biso   1.000  C  -0.227205
  H3       1.0000 0.99990  0.69440  0.69540  Biso   1.000  H  0.135323
  H4       1.0000 0.99990  0.80560  0.80460  Biso   1.000  H  0.135323
  Zr8      1.0000 0.13785  0.51113  0.01188  Biso   1.000  Zr  2.376644
  Zr9      1.0000 0.01188  0.13785  0.51113  Biso   1.000  Zr  2.376644
  Zr10     1.0000 0.01113  0.51188  0.86215  Biso   1.000  Zr  2.376644
  O9       1.0000 0.09150  0.00800  0.29100  Biso   1.000  O  -0.616223
  O10      1.0000 0.09150  0.49200  0.20900  Biso   1.000  O  -0.594486
  O11      1.0000 0.99270  0.12630  0.31040  Biso   1.000  O  -0.615997
  O12      1.0000 0.99270  0.37370  0.18960  Biso   1.000  O  -0.594341
  O13      1.0000 0.09060  0.79120  0.47610  Biso   1.000  O  -0.595606
  O14      1.0000 0.09060  0.70880  0.02390  Biso   1.000  O  -0.616955
  O15      1.0000 0.07650  0.90830  0.56470  Biso   1.000  O  -0.898910
  O16      1.0000 0.06470  0.92350  0.40830  Biso   1.000  O  -0.898910
  O17      1.0000 0.06470  0.57650  0.09170  Biso   1.000  O  -0.975985
  O18      1.0000 0.07850  0.42150  0.07850  Biso   1.000  O  -0.899434
  O19      1.0000 0.07850  0.07850  0.42150  Biso   1.000  O  -0.971276
  O20      1.0000 0.07650  0.59170  0.93530  Biso   1.000  O  -0.975985
  Zr11     1.0000 0.36215  0.98887  0.01188  Biso   1.000  Zr  2.151431
  Zr12     1.0000 0.48812  0.13785  0.98887  Biso   1.000  Zr  2.376644
  Zr13     1.0000 0.63785  0.01113  0.98812  Biso   1.000  Zr  2.138498
  Zr14     1.0000 0.48887  0.98812  0.86215  Biso   1.000  Zr  2.376644
  O21      1.0000 0.59150  0.99200  0.79100  Biso   1.000  O  -0.594486
  O22      1.0000 0.90850  0.99200  0.70900  Biso   1.000  O  -0.616223
  O23      1.0000 0.37540  0.97540  0.80960  Biso   1.000  O  -0.595235
  O24      1.0000 0.12460  0.97540  0.69040  Biso   1.000  O  -0.615730
  O25      1.0000 0.68960  0.00730  0.87370  Biso   1.000  O  -0.615997
  O26      1.0000 0.81040  0.00730  0.62630  Biso   1.000  O  -0.594341
  O27      1.0000 0.29120  0.97610  0.90940  Biso   1.000  O  -0.616955
  O28      1.0000 0.20880  0.97610  0.59060  Biso   1.000  O  -0.595606
  C9       1.0000 0.31090  0.97600  0.83960  Biso   1.000  C  0.632608
  C10      1.0000 0.18910  0.97600  0.66040  Biso   1.000  C  0.632608
  C11      1.0000 0.24450  0.97570  0.78580  Biso   1.000  C  -0.225776
  C12      1.0000 0.25550  0.97570  0.71420  Biso   1.000  C  -0.225776
  H5       1.0000 0.19580  0.97560  0.80450  Biso   1.000  H  0.135560
  H6       1.0000 0.30420  0.97560  0.69550  Biso   1.000  H  0.135560
  C13      1.0000 0.66020  0.00000  0.80940  Biso   1.000  C  0.661763
  C14      1.0000 0.83980  0.00000  0.69060  Biso   1.000  C  0.661763
  C15      1.0000 0.71350  0.99990  0.74330  Biso   1.000  C  -0.227205
  C16      1.0000 0.78650  0.99990  0.75670  Biso   1.000  C  -0.227205
  H7       1.0000 0.69540  0.99990  0.69440  Biso   1.000  H  0.135323
  H8       1.0000 0.80460  0.99990  0.80560  Biso   1.000  H  0.135323
  Zr15     1.0000 0.51113  0.01188  0.13785  Biso   1.000  Zr  2.376644
  Zr16     1.0000 0.86215  0.01113  0.51188  Biso   1.000  Zr  2.376644
  O29      1.0000 0.29100  0.09150  0.00800  Biso   1.000  O  -0.616223
  O30      1.0000 0.20900  0.09150  0.49200  Biso   1.000  O  -0.594486
  O31      1.0000 0.31040  0.99270  0.12630  Biso   1.000  O  -0.615997
  O32      1.0000 0.18960  0.99270  0.37370  Biso   1.000  O  -0.594341
  O33      1.0000 0.47610  0.09060  0.79120  Biso   1.000  O  -0.595606
  O34      1.0000 0.02390  0.09060  0.70880  Biso   1.000  O  -0.616955
  O35      1.0000 0.56470  0.07650  0.90830  Biso   1.000  O  -0.975985
  O36      1.0000 0.40830  0.06470  0.92350  Biso   1.000  O  -0.898910
  O37      1.0000 0.09170  0.06470  0.57650  Biso   1.000  O  -0.975985
  O38      1.0000 0.42150  0.07850  0.07850  Biso   1.000  O  -0.899434
  Zr17     1.0000 0.86215  0.48887  0.98812  Biso   1.000  Zr  2.376644
  O39      1.0000 0.79100  0.59150  0.99200  Biso   1.000  O  -0.594486
  O40      1.0000 0.70900  0.90850  0.99200  Biso   1.000  O  -0.616223
  O41      1.0000 0.80960  0.37540  0.97540  Biso   1.000  O  -0.595235
  O42      1.0000 0.69040  0.12460  0.97540  Biso   1.000  O  -0.615730
  O43      1.0000 0.87370  0.68960  0.00730  Biso   1.000  O  -0.615997
  O44      1.0000 0.62630  0.81040  0.00730  Biso   1.000  O  -0.594341
  O45      1.0000 0.90940  0.29120  0.97610  Biso   1.000  O  -0.616955
  O46      1.0000 0.59060  0.20880  0.97610  Biso   1.000  O  -0.595606
  C17      1.0000 0.83960  0.31090  0.97600  Biso   1.000  C  0.632608
  C18      1.0000 0.66040  0.18910  0.97600  Biso   1.000  C  0.632608
  C19      1.0000 0.78580  0.24450  0.97570  Biso   1.000  C  -0.225776
  C20      1.0000 0.71420  0.25550  0.97570  Biso   1.000  C  -0.225776
  H9       1.0000 0.80450  0.19580  0.97560  Biso   1.000  H  0.135560
  H10      1.0000 0.69550  0.30420  0.97560  Biso   1.000  H  0.135560
  C21      1.0000 0.80940  0.66020  0.00000  Biso   1.000  C  0.661763
  C22      1.0000 0.69060  0.83980  0.00000  Biso   1.000  C  0.661763
  C23      1.0000 0.74330  0.71350  0.99990  Biso   1.000  C  -0.227205
  C24      1.0000 0.75670  0.78650  0.99990  Biso   1.000  C  -0.227205
  H11      1.0000 0.69440  0.69540  0.99990  Biso   1.000  H  0.135323
  H12      1.0000 0.80560  0.80460  0.99990  Biso   1.000  H  0.135323
  Zr18     1.0000 0.51188  0.86215  0.01113  Biso   1.000  Zr  2.376644
  O47      1.0000 0.00800  0.29100  0.09150  Biso   1.000  O  -0.616223
  O48      1.0000 0.49200  0.20900  0.09150  Biso   1.000  O  -0.594486
  O49      1.0000 0.12630  0.31040  0.99270  Biso   1.000  O  -0.615997
  O50      1.0000 0.37370  0.18960  0.99270  Biso   1.000  O  -0.594341
  O51      1.0000 0.79120  0.47610  0.09060  Biso   1.000  O  -0.595606
  O52      1.0000 0.70880  0.02390  0.09060  Biso   1.000  O  -0.616955
  O53      1.0000 0.90830  0.56470  0.07650  Biso   1.000  O  -0.898910
  O54      1.0000 0.92350  0.40830  0.06470  Biso   1.000  O  -0.975985
  O55      1.0000 0.57650  0.09170  0.06470  Biso   1.000  O  -0.975985
  Zr19     1.0000 0.36215  0.51113  0.48812  Biso   1.000  Zr  2.376644
  Zr20     1.0000 0.48812  0.36215  0.51113  Biso   1.000  Zr  2.376644
  Zr21     1.0000 0.51113  0.48812  0.36215  Biso   1.000  Zr  2.376644
  Zr22     1.0000 0.63785  0.48887  0.51188  Biso   1.000  Zr  2.376644
  Zr23     1.0000 0.51188  0.63785  0.48887  Biso   1.000  Zr  2.376644
  Zr24     1.0000 0.48887  0.51188  0.63785  Biso   1.000  Zr  2.376644
  O56      1.0000 0.20900  0.40850  0.00800  Biso   1.000  O  -0.594486
  O57      1.0000 0.29100  0.40850  0.49200  Biso   1.000  O  -0.594486
  O58      1.0000 0.00800  0.20900  0.40850  Biso   1.000  O  -0.594486
  O59      1.0000 0.49200  0.29100  0.40850  Biso   1.000  O  -0.594486
  O60      1.0000 0.40850  0.00800  0.20900  Biso   1.000  O  -0.594486
  O61      1.0000 0.40850  0.49200  0.29100  Biso   1.000  O  -0.594486
  O62      1.0000 0.70900  0.59150  0.50800  Biso   1.000  O  -0.594486
  O63      1.0000 0.79100  0.90850  0.50800  Biso   1.000  O  -0.594486
  O64      1.0000 0.50800  0.70900  0.59150  Biso   1.000  O  -0.594486
  O65      1.0000 0.50800  0.79100  0.90850  Biso   1.000  O  -0.594486
  O66      1.0000 0.59150  0.50800  0.70900  Biso   1.000  O  -0.594486
  O67      1.0000 0.90850  0.50800  0.79100  Biso   1.000  O  -0.594486
  O68      1.0000 0.19040  0.62460  0.02460  Biso   1.000  O  -0.595235
  O69      1.0000 0.30960  0.87540  0.02460  Biso   1.000  O  -0.615730
  O70      1.0000 0.30960  0.62460  0.47540  Biso   1.000  O  -0.595235
  O71      1.0000 0.19040  0.87540  0.47540  Biso   1.000  O  -0.595235
  O72      1.0000 0.02460  0.19040  0.62460  Biso   1.000  O  -0.595235
  O73      1.0000 0.02460  0.30960  0.87540  Biso   1.000  O  -0.615730
  O74      1.0000 0.47540  0.30960  0.62460  Biso   1.000  O  -0.595235
  O75      1.0000 0.47540  0.19040  0.87540  Biso   1.000  O  -0.595235
  O76      1.0000 0.62460  0.02460  0.19040  Biso   1.000  O  -0.595235
  O77      1.0000 0.87540  0.02460  0.30960  Biso   1.000  O  -0.615730
  O78      1.0000 0.62460  0.47540  0.30960  Biso   1.000  O  -0.595235
  O79      1.0000 0.87540  0.47540  0.19040  Biso   1.000  O  -0.595235
  O80      1.0000 0.69040  0.37540  0.52460  Biso   1.000  O  -0.595235
  O81      1.0000 0.80960  0.12460  0.52460  Biso   1.000  O  -0.595235
  O82      1.0000 0.52460  0.69040  0.37540  Biso   1.000  O  -0.595235
  O83      1.0000 0.52460  0.80960  0.12460  Biso   1.000  O  -0.595235
  O84      1.0000 0.37540  0.52460  0.69040  Biso   1.000  O  -0.595235
  O85      1.0000 0.12460  0.52460  0.80960  Biso   1.000  O  -0.595235
  O86      1.0000 0.18960  0.50730  0.12630  Biso   1.000  O  -0.594341
  O87      1.0000 0.31040  0.50730  0.37370  Biso   1.000  O  -0.594341
  O88      1.0000 0.12630  0.18960  0.50730  Biso   1.000  O  -0.594341
  O89      1.0000 0.37370  0.31040  0.50730  Biso   1.000  O  -0.594341
  O90      1.0000 0.50730  0.12630  0.18960  Biso   1.000  O  -0.594341
  O91      1.0000 0.50730  0.37370  0.31040  Biso   1.000  O  -0.594341
  O92      1.0000 0.81040  0.49270  0.87370  Biso   1.000  O  -0.594341
  O93      1.0000 0.68960  0.49270  0.62630  Biso   1.000  O  -0.594341
  O94      1.0000 0.87370  0.81040  0.49270  Biso   1.000  O  -0.594341
  O95      1.0000 0.62630  0.68960  0.49270  Biso   1.000  O  -0.594341
  O96      1.0000 0.49270  0.87370  0.81040  Biso   1.000  O  -0.594341
  O97      1.0000 0.49270  0.62630  0.68960  Biso   1.000  O  -0.594341
  O98      1.0000 0.20880  0.52390  0.90940  Biso   1.000  O  -0.595606
  O99      1.0000 0.29120  0.52390  0.59060  Biso   1.000  O  -0.595606
  O100     1.0000 0.90940  0.20880  0.52390  Biso   1.000  O  -0.595606
  O101     1.0000 0.59060  0.29120  0.52390  Biso   1.000  O  -0.595606
  O102     1.0000 0.52390  0.90940  0.20880  Biso   1.000  O  -0.595606
  O103     1.0000 0.52390  0.59060  0.29120  Biso   1.000  O  -0.595606
  O104     1.0000 0.70880  0.47610  0.40940  Biso   1.000  O  -0.595606
  O105     1.0000 0.79120  0.02390  0.40940  Biso   1.000  O  -0.595606
  O106     1.0000 0.40940  0.70880  0.47610  Biso   1.000  O  -0.595606
  O107     1.0000 0.40940  0.79120  0.02390  Biso   1.000  O  -0.595606
  O108     1.0000 0.47610  0.40940  0.70880  Biso   1.000  O  -0.595606
  O109     1.0000 0.02390  0.40940  0.79120  Biso   1.000  O  -0.595606
  C25      1.0000 0.16040  0.68910  0.02400  Biso   1.000  C  0.632608
  C26      1.0000 0.33960  0.81090  0.02400  Biso   1.000  C  0.632608
  C27      1.0000 0.33960  0.68910  0.47600  Biso   1.000  C  0.632608
  C28      1.0000 0.16040  0.81090  0.47600  Biso   1.000  C  0.632608
  C29      1.0000 0.02400  0.16040  0.68910  Biso   1.000  C  0.632608
  C30      1.0000 0.02400  0.33960  0.81090  Biso   1.000  C  0.632608
  C31      1.0000 0.47600  0.33960  0.68910  Biso   1.000  C  0.632608
  C32      1.0000 0.47600  0.16040  0.81090  Biso   1.000  C  0.632608
  C33      1.0000 0.68910  0.02400  0.16040  Biso   1.000  C  0.632608
  C34      1.0000 0.81090  0.02400  0.33960  Biso   1.000  C  0.632608
  C35      1.0000 0.68910  0.47600  0.33960  Biso   1.000  C  0.632608
  C36      1.0000 0.81090  0.47600  0.16040  Biso   1.000  C  0.632608
  C37      1.0000 0.66040  0.31090  0.52400  Biso   1.000  C  0.632608
  C38      1.0000 0.83960  0.18910  0.52400  Biso   1.000  C  0.632608
  C39      1.0000 0.52400  0.66040  0.31090  Biso   1.000  C  0.632608
  C40      1.0000 0.52400  0.83960  0.18910  Biso   1.000  C  0.632608
  C41      1.0000 0.31090  0.52400  0.66040  Biso   1.000  C  0.632608
  C42      1.0000 0.18910  0.52400  0.83960  Biso   1.000  C  0.632608
  C43      1.0000 0.21420  0.75550  0.02430  Biso   1.000  C  -0.225776
  C44      1.0000 0.28580  0.74450  0.02430  Biso   1.000  C  -0.225776
  C45      1.0000 0.28580  0.75550  0.47570  Biso   1.000  C  -0.225776
  C46      1.0000 0.21420  0.74450  0.47570  Biso   1.000  C  -0.225776
  C47      1.0000 0.02430  0.21420  0.75550  Biso   1.000  C  -0.225776
  C48      1.0000 0.02430  0.28580  0.74450  Biso   1.000  C  -0.225776
  C49      1.0000 0.47570  0.28580  0.75550  Biso   1.000  C  -0.225776
  C50      1.0000 0.47570  0.21420  0.74450  Biso   1.000  C  -0.225776
  C51      1.0000 0.75550  0.02430  0.21420  Biso   1.000  C  -0.225776
  C52      1.0000 0.74450  0.02430  0.28580  Biso   1.000  C  -0.225776
  C53      1.0000 0.75550  0.47570  0.28580  Biso   1.000  C  -0.225776
  C54      1.0000 0.74450  0.47570  0.21420  Biso   1.000  C  -0.225776
  C55      1.0000 0.71420  0.24450  0.52430  Biso   1.000  C  -0.225776
  C56      1.0000 0.78580  0.25550  0.52430  Biso   1.000  C  -0.225776
  C57      1.0000 0.52430  0.71420  0.24450  Biso   1.000  C  -0.225776
  C58      1.0000 0.52430  0.78580  0.25550  Biso   1.000  C  -0.225776
  C59      1.0000 0.24450  0.52430  0.71420  Biso   1.000  C  -0.225776
  C60      1.0000 0.25550  0.52430  0.78580  Biso   1.000  C  -0.225776
  H13      1.0000 0.19550  0.80420  0.02440  Biso   1.000  H  0.135560
  H14      1.0000 0.30450  0.69580  0.02440  Biso   1.000  H  0.135560
  H15      1.0000 0.30450  0.80420  0.47560  Biso   1.000  H  0.135560
  H16      1.0000 0.19550  0.69580  0.47560  Biso   1.000  H  0.135560
  H17      1.0000 0.02440  0.19550  0.80420  Biso   1.000  H  0.135560
  H18      1.0000 0.02440  0.30450  0.69580  Biso   1.000  H  0.135560
  H19      1.0000 0.47560  0.30450  0.80420  Biso   1.000  H  0.135560
  H20      1.0000 0.47560  0.19550  0.69580  Biso   1.000  H  0.135560
  H21      1.0000 0.80420  0.02440  0.19550  Biso   1.000  H  0.135560
  H22      1.0000 0.69580  0.02440  0.30450  Biso   1.000  H  0.135560
  H23      1.0000 0.80420  0.47560  0.30450  Biso   1.000  H  0.135560
  H24      1.0000 0.69580  0.47560  0.19550  Biso   1.000  H  0.135560
  H25      1.0000 0.69550  0.19580  0.52440  Biso   1.000  H  0.135560
  H26      1.0000 0.80450  0.30420  0.52440  Biso   1.000  H  0.135560
  H27      1.0000 0.52440  0.69550  0.19580  Biso   1.000  H  0.135560
  H28      1.0000 0.52440  0.80450  0.30420  Biso   1.000  H  0.135560
  H29      1.0000 0.19580  0.52440  0.69550  Biso   1.000  H  0.135560
  H30      1.0000 0.30420  0.52440  0.80450  Biso   1.000  H  0.135560
  C61      1.0000 0.19060  0.33980  0.00000  Biso   1.000  C  0.661763
  C62      1.0000 0.30940  0.16020  0.00000  Biso   1.000  C  0.661763
  C63      1.0000 0.30940  0.33980  0.50000  Biso   1.000  C  0.661763
  C64      1.0000 0.19060  0.16020  0.50000  Biso   1.000  C  0.661763
  C65      1.0000 0.00000  0.19060  0.33980  Biso   1.000  C  0.661763
  C66      1.0000 0.00000  0.30940  0.16020  Biso   1.000  C  0.661763
  C67      1.0000 0.50000  0.30940  0.33980  Biso   1.000  C  0.661763
  C68      1.0000 0.50000  0.19060  0.16020  Biso   1.000  C  0.661763
  C69      1.0000 0.33980  0.00000  0.19060  Biso   1.000  C  0.661763
  C70      1.0000 0.16020  0.00000  0.30940  Biso   1.000  C  0.661763
  C71      1.0000 0.33980  0.50000  0.30940  Biso   1.000  C  0.661763
  C72      1.0000 0.16020  0.50000  0.19060  Biso   1.000  C  0.661763
  C73      1.0000 0.69060  0.66020  0.50000  Biso   1.000  C  0.661763
  C74      1.0000 0.80940  0.83980  0.50000  Biso   1.000  C  0.661763
  C75      1.0000 0.50000  0.69060  0.66020  Biso   1.000  C  0.661763
  C76      1.0000 0.50000  0.80940  0.83980  Biso   1.000  C  0.661763
  C77      1.0000 0.66020  0.50000  0.69060  Biso   1.000  C  0.661763
  C78      1.0000 0.83980  0.50000  0.80940  Biso   1.000  C  0.661763
  C79      1.0000 0.25670  0.28650  0.00010  Biso   1.000  C  -0.227205
  C80      1.0000 0.24330  0.21350  0.00010  Biso   1.000  C  -0.227205
  C81      1.0000 0.24330  0.28650  0.49990  Biso   1.000  C  -0.227205
  C82      1.0000 0.25670  0.21350  0.49990  Biso   1.000  C  -0.227205
  C83      1.0000 0.00010  0.25670  0.28650  Biso   1.000  C  -0.227205
  C84      1.0000 0.00010  0.24330  0.21350  Biso   1.000  C  -0.227205
  C85      1.0000 0.49990  0.24330  0.28650  Biso   1.000  C  -0.227205
  C86      1.0000 0.49990  0.25670  0.21350  Biso   1.000  C  -0.227205
  C87      1.0000 0.28650  0.00010  0.25670  Biso   1.000  C  -0.227205
  C88      1.0000 0.21350  0.00010  0.24330  Biso   1.000  C  -0.227205
  C89      1.0000 0.28650  0.49990  0.24330  Biso   1.000  C  -0.227205
  C90      1.0000 0.21350  0.49990  0.25670  Biso   1.000  C  -0.227205
  C91      1.0000 0.75670  0.71350  0.50010  Biso   1.000  C  -0.227205
  C92      1.0000 0.74330  0.78650  0.50010  Biso   1.000  C  -0.227205
  C93      1.0000 0.50010  0.75670  0.71350  Biso   1.000  C  -0.227205
  C94      1.0000 0.50010  0.74330  0.78650  Biso   1.000  C  -0.227205
  C95      1.0000 0.71350  0.50010  0.75670  Biso   1.000  C  -0.227205
  C96      1.0000 0.78650  0.50010  0.74330  Biso   1.000  C  -0.227205
  H31      1.0000 0.30560  0.30460  0.00010  Biso   1.000  H  0.135323
  H32      1.0000 0.19440  0.19540  0.00010  Biso   1.000  H  0.135323
  H33      1.0000 0.19440  0.30460  0.49990  Biso   1.000  H  0.135323
  H34      1.0000 0.30560  0.19540  0.49990  Biso   1.000  H  0.135323
  H35      1.0000 0.00010  0.30560  0.30460  Biso   1.000  H  0.135323
  H36      1.0000 0.00010  0.19440  0.19540  Biso   1.000  H  0.135323
  H37      1.0000 0.49990  0.19440  0.30460  Biso   1.000  H  0.135323
  H38      1.0000 0.49990  0.30560  0.19540  Biso   1.000  H  0.135323
  H39      1.0000 0.30460  0.00010  0.30560  Biso   1.000  H  0.135323
  H40      1.0000 0.19540  0.00010  0.19440  Biso   1.000  H  0.135323
  H41      1.0000 0.30460  0.49990  0.19440  Biso   1.000  H  0.135323
  H42      1.0000 0.19540  0.49990  0.30560  Biso   1.000  H  0.135323
  H43      1.0000 0.80560  0.69540  0.50010  Biso   1.000  H  0.135323
  H44      1.0000 0.69440  0.80460  0.50010  Biso   1.000  H  0.135323
  H45      1.0000 0.50010  0.80560  0.69540  Biso   1.000  H  0.135323
  H46      1.0000 0.50010  0.69440  0.80460  Biso   1.000  H  0.135323
  H47      1.0000 0.69540  0.50010  0.80560  Biso   1.000  H  0.135323
  H48      1.0000 0.80460  0.50010  0.69440  Biso   1.000  H  0.135323
  O110     1.0000 0.42350  0.90830  0.93530  Biso   1.000  O  -0.975985
  O111     1.0000 0.42350  0.59170  0.56470  Biso   1.000  O  -1.032762
  O112     1.0000 0.93530  0.07650  0.59170  Biso   1.000  O  -0.898910
  O113     1.0000 0.93530  0.42350  0.90830  Biso   1.000  O  -0.975985
  O114     1.0000 0.56470  0.42350  0.59170  Biso   1.000  O  -1.032762
  O115     1.0000 0.59170  0.93530  0.07650  Biso   1.000  O  -0.898910
  O116     1.0000 0.90830  0.93530  0.42350  Biso   1.000  O  -0.975985
  O117     1.0000 0.59170  0.56470  0.42350  Biso   1.000  O  -1.098079
  O118     1.0000 0.57650  0.40830  0.43530  Biso   1.000  O  -1.032762
  O119     1.0000 0.92350  0.09170  0.43530  Biso   1.000  O  -0.898910
  O120     1.0000 0.43530  0.57650  0.40830  Biso   1.000  O  -1.032762
  O121     1.0000 0.43530  0.92350  0.09170  Biso   1.000  O  -0.975985
  O122     1.0000 0.40830  0.43530  0.57650  Biso   1.000  O  -1.098079
  O123     1.0000 0.42150  0.42150  0.42150  Biso   1.000  O  -1.097060
  O124     1.0000 0.92150  0.57850  0.92150  Biso   1.000  O  -0.899434
  O125     1.0000 0.57850  0.92150  0.92150  Biso   1.000  O  -0.899434
  O126     1.0000 0.57850  0.57850  0.57850  Biso   1.000  O  -1.097060
  O127     1.0000 0.92150  0.92150  0.57850  Biso   1.000  O  -0.971276
  O128     1.0000 0.09170  0.43530  0.92350  Biso   1.000  O  -0.898910
  H49      1.0000 0.12462  0.38492  0.91288  Biso   1.000  H  0.399166
  H50      1.0000 0.63543  0.90196  0.91089  Biso   1.000  H  0.404431
  H51      1.0000 0.89732  0.63362  0.91089  Biso   1.000  H  0.403752
  H52      1.0000 0.40870  0.60541  0.36148  Biso   1.000  H  0.369085
  H53      1.0000 0.90772  0.12768  0.38848  Biso   1.000  H  0.397031
  H54      1.0000 0.60545  0.36399  0.40474  Biso   1.000  H  0.369085
  H55      1.0000 0.65189  0.93530  0.08712  Biso   1.000  H  0.393491
  H56      1.0000 0.58619  0.39061  0.63852  Biso   1.000  H  0.369085
  H57      1.0000 0.93357  0.09733  0.64914  Biso   1.000  H  0.404385
  H58      1.0000 0.38765  0.63064  0.59526  Biso   1.000  H  0.369085
  H59      1.0000 0.88412  0.61982  0.08712  Biso   1.000  H  0.401362
  H60      1.0000 0.36213  0.08841  0.08911  Biso   1.000  H  0.417894
  H61      1.0000 0.34893  0.07461  0.91288  Biso   1.000  H  0.400572
  H62      1.0000 0.09327  0.36316  0.08911  Biso   1.000  H  0.400237
  H63      1.0000 0.06983  0.90323  0.35086  Biso   1.000  H  0.403749
  H64      1.0000 0.08615  0.87021  0.61152  Biso   1.000  H  0.399484
