@<TRIPOS>MOLECULE
MOL
  3534  5640     1     0     0
SMALL
NO_CHARGES
****
ITC 2023. ALL RIGHTS RESERVED.

@<TRIPOS>ATOM
     1 Zr3      6.4589   9.1159   8.7055   Zr        1 RES1   0.0000
     2 Zr7      8.7055   6.4589   9.1159   Zr        1 RES1   0.0000
     3 Zr11     9.1159   8.7055   6.4589   Zr        1 RES1   0.0000
     4 Zr13    15.3763   8.7189  17.6229   Zr        1 RES1   0.0000
     5 Zr15    11.3759   8.7189   9.1293   Zr        1 RES1   0.0000
     6 Zr17    17.6229  15.3763   8.7189   Zr        1 RES1   0.0000
     7 Zr19     9.1293  11.3759   8.7189   Zr        1 RES1   0.0000
     8 Zr21     8.7189  17.6229  15.3763   Zr        1 RES1   0.0000
     9 Zr23     8.7189   9.1293  11.3759   Zr        1 RES1   0.0000
    10 O13     14.1073  10.5493  17.6921   Oco2      1 RES1   0.0000
    11 O14     12.6449  16.2029  17.6921   Oco2      1 RES1   0.0000
    12 O15     12.6449  10.5493   9.0601   Oco2      1 RES1   0.0000
    13 O16     14.1073  16.2029   9.0601   Oco2      1 RES1   0.0000
    14 O17     17.6921  14.1073  10.5493   Oco2      1 RES1   0.0000
    15 O18     17.6921  12.6449  16.2029   Oco2      1 RES1   0.0000
    16 O19      9.0601  12.6449  10.5493   Oco2      1 RES1   0.0000
    17 O20      9.0601  14.1073  16.2029   Oco2      1 RES1   0.0000
    18 O21     10.5493  17.6921  14.1073   Oco2      1 RES1   0.0000
    19 O22     16.2029  17.6921  12.6449   Oco2      1 RES1   0.0000
    20 O23     10.5493   9.0601  12.6449   Oco2      1 RES1   0.0000
    21 O24     16.2029   9.0601  14.1073   Oco2      1 RES1   0.0000
    22 O61     14.4533   8.7872  15.5823   Oco2      1 RES1   0.0000
    23 O62     12.2989  17.9650  15.5823   Oco2      1 RES1   0.0000
    24 O63     12.2989   8.7872  11.1699   Oco2      1 RES1   0.0000
    25 O64     14.4533  17.9650  11.1699   Oco2      1 RES1   0.0000
    26 O65     15.5823  14.4533   8.7872   Oco2      1 RES1   0.0000
    27 O66     15.5823  12.2989  17.9650   Oco2      1 RES1   0.0000
    28 O67     11.1699  12.2989   8.7872   Oco2      1 RES1   0.0000
    29 O68     11.1699  14.4533  17.9650   Oco2      1 RES1   0.0000
    30 O69      8.7872  15.5823  14.4533   Oco2      1 RES1   0.0000
    31 O70     17.9650  15.5823  12.2989   Oco2      1 RES1   0.0000
    32 O71      8.7872  11.1699  12.2989   Oco2      1 RES1   0.0000
    33 O72     17.9650  11.1699  14.4533   Oco2      1 RES1   0.0000
    34 C61     14.4355  11.7745  17.8348   C.2       1 RES1   0.0000
    35 C62     12.3167  14.9777  17.8348   C.2       1 RES1   0.0000
    36 C63     12.3167  11.7745   8.9174   C.2       1 RES1   0.0000
    37 C64     14.4355  14.9777   8.9174   C.2       1 RES1   0.0000
    38 C65     17.8348  14.4355  11.7745   C.2       1 RES1   0.0000
    39 C66     17.8348  12.3167  14.9777   C.2       1 RES1   0.0000
    40 C67      8.9174  12.3167  11.7745   C.2       1 RES1   0.0000
    41 C68      8.9174  14.4355  14.9777   C.2       1 RES1   0.0000
    42 C69     11.7745  17.8348  14.4355   C.2       1 RES1   0.0000
    43 C70     14.9777  17.8348  12.3167   C.2       1 RES1   0.0000
    44 C71     11.7745   8.9174  12.3167   C.2       1 RES1   0.0000
    45 C72     14.9777   8.9174  14.4355   C.2       1 RES1   0.0000
    46 C85     13.2566  12.7251  17.8330   C.2       1 RES1   0.0000
    47 C86     13.4956  14.0271  17.8330   C.2       1 RES1   0.0000
    48 C87     13.4956  12.7251   8.9192   C.2       1 RES1   0.0000
    49 C88     13.2566  14.0271   8.9192   C.2       1 RES1   0.0000
    50 C89     17.8330  13.2566  12.7251   C.2       1 RES1   0.0000
    51 C90     17.8330  13.4956  14.0271   C.2       1 RES1   0.0000
    52 C91      8.9192  13.4956  12.7251   C.2       1 RES1   0.0000
    53 C92      8.9192  13.2566  14.0271   C.2       1 RES1   0.0000
    54 C93     12.7251  17.8330  13.2566   C.2       1 RES1   0.0000
    55 C94     14.0271  17.8330  13.4956   C.2       1 RES1   0.0000
    56 C95     12.7251   8.9192  13.4956   C.2       1 RES1   0.0000
    57 C96     14.0271   8.9192  13.2566   C.2       1 RES1   0.0000
    58 H37     12.3845  12.4023  17.8330   H         1 RES1   0.0000
    59 H38     14.3677  14.3499  17.8330   H         1 RES1   0.0000
    60 H39     14.3677  12.4023   8.9192   H         1 RES1   0.0000
    61 H40     12.3845  14.3499   8.9192   H         1 RES1   0.0000
    62 H41     17.8330  12.3845  12.4023   H         1 RES1   0.0000
    63 H42     17.8330  14.3677  14.3499   H         1 RES1   0.0000
    64 H43      8.9192  14.3677  12.4023   H         1 RES1   0.0000
    65 H44      8.9192  12.3845  14.3499   H         1 RES1   0.0000
    66 H45     12.4023  17.8330  12.3845   H         1 RES1   0.0000
    67 H46     14.3499  17.8330  14.3677   H         1 RES1   0.0000
    68 H47     12.4023   8.9192  14.3677   H         1 RES1   0.0000
    69 H48     14.3499   8.9192  12.3845   H         1 RES1   0.0000
    70 O98      7.5530  16.1993  16.6809   O3        1 RES1   0.0000
    71 O99      7.5530  10.5529  10.0713   O3        1 RES1   0.0000
    72 O102    16.6809   7.5530  16.1993   O3        1 RES1   0.0000
    73 O103    10.0713   7.5530  10.5529   O3        1 RES1   0.0000
    74 O106    16.1993  16.6809   7.5530   O3        1 RES1   0.0000
    75 O107    10.5529  10.0713   7.5530   O3        1 RES1   0.0000
    76 O111    10.2818   7.2819   7.7635   O3        1 RES1   0.0000
    77 O115     7.7635  10.2818   7.2819   O3        1 RES1   0.0000
    78 O119     7.2819   7.7635  10.2818   O3        1 RES1   0.0000
    79 O155     7.5174   7.5174   7.5174   O3        1 RES1   0.0000
    80 O157    16.4348  10.3174  16.4348   O3        1 RES1   0.0000
    81 O158    10.3174  16.4348  16.4348   O3        1 RES1   0.0000
    82 O159    10.3174  10.3174  10.3174   O3        1 RES1   0.0000
    83 O160    16.4348  16.4348  10.3174   O3        1 RES1   0.0000
    84 Zr2      6.4589  17.6363  18.0467   Zr        1 RES1   0.0000
    85 Zr4     20.2933  17.6363   8.7055   Zr        1 RES1   0.0000
    86 Zr6     18.0467   6.4589  17.6363   Zr        1 RES1   0.0000
    87 Zr8      8.7055  20.2933  17.6363   Zr        1 RES1   0.0000
    88 Zr10    17.6363  18.0467   6.4589   Zr        1 RES1   0.0000
    89 Zr12    17.6363   8.7055  20.2933   Zr        1 RES1   0.0000
    90 Zr14    11.3759  18.0333  17.6229   Zr        1 RES1   0.0000
    91 Zr16    15.3763  18.0333   9.1293   Zr        1 RES1   0.0000
    92 Zr18    17.6229  11.3759  18.0333   Zr        1 RES1   0.0000
    93 Zr20     9.1293  15.3763  18.0333   Zr        1 RES1   0.0000
    94 Zr22    18.0333  17.6229  11.3759   Zr        1 RES1   0.0000
    95 Zr24    18.0333   9.1293  15.3763   Zr        1 RES1   0.0000
    96 O85     14.1109   8.4911  19.4506   Oco2      1 RES1   0.0000
    97 O89     19.4506  14.1109   8.4911   Oco2      1 RES1   0.0000
    98 O93      8.4911  19.4506  14.1109   Oco2      1 RES1   0.0000
    99 O100    19.1992  16.1993  10.0713   O3        1 RES1   0.0000
   100 O104    10.0713  19.1992  16.1993   O3        1 RES1   0.0000
   101 O108    16.1993  10.0713  19.1992   O3        1 RES1   0.0000
   102 O109    16.4704   7.2819  18.9887   O3        1 RES1   0.0000
   103 O113    18.9887  16.4704   7.2819   O3        1 RES1   0.0000
   104 O117     7.2819  18.9887  16.4704   O3        1 RES1   0.0000
   105 Zr3      6.4589   9.1159  26.5403   Zr        1 RES1   0.0000
   106 Zr7      8.7055   6.4589  26.9507   Zr        1 RES1   0.0000
   107 Zr11     9.1159   8.7055  24.2937   Zr        1 RES1   0.0000
   108 Zr13    15.3763   8.7189  35.4577   Zr        1 RES1   0.0000
   109 Zr15    11.3759   8.7189  26.9641   Zr        1 RES1   0.0000
   110 Zr17    17.6229  15.3763  26.5537   Zr        1 RES1   0.0000
   111 Zr19     9.1293  11.3759  26.5537   Zr        1 RES1   0.0000
   112 Zr21     8.7189  17.6229  33.2111   Zr        1 RES1   0.0000
   113 Zr23     8.7189   9.1293  29.2107   Zr        1 RES1   0.0000
   114 O13     14.1073  10.5493  35.5269   Oco2      1 RES1   0.0000
   115 O14     12.6449  16.2029  35.5269   Oco2      1 RES1   0.0000
   116 O15     12.6449  10.5493  26.8949   Oco2      1 RES1   0.0000
   117 O16     14.1073  16.2029  26.8949   Oco2      1 RES1   0.0000
   118 O17     17.6921  14.1073  28.3841   Oco2      1 RES1   0.0000
   119 O18     17.6921  12.6449  34.0377   Oco2      1 RES1   0.0000
   120 O19      9.0601  12.6449  28.3841   Oco2      1 RES1   0.0000
   121 O20      9.0601  14.1073  34.0377   Oco2      1 RES1   0.0000
   122 O21     10.5493  17.6921  31.9421   Oco2      1 RES1   0.0000
   123 O22     16.2029  17.6921  30.4797   Oco2      1 RES1   0.0000
   124 O23     10.5493   9.0601  30.4797   Oco2      1 RES1   0.0000
   125 O24     16.2029   9.0601  31.9421   Oco2      1 RES1   0.0000
   126 O35     11.1396   8.4787  23.3565   Oco2      1 RES1   0.0000
   127 O36     15.6126   8.4787  21.2305   Oco2      1 RES1   0.0000
   128 O41     17.3961  14.4391  24.5300   Oco2      1 RES1   0.0000
   129 O42     17.3961  12.3131  20.0570   Oco2      1 RES1   0.0000
   130 O43      9.3561  12.3131  24.5300   Oco2      1 RES1   0.0000
   131 O44      9.3561  14.4391  20.0570   Oco2      1 RES1   0.0000
   132 O61     14.4533   8.7872  33.4171   Oco2      1 RES1   0.0000
   133 O62     12.2989  17.9650  33.4171   Oco2      1 RES1   0.0000
   134 O63     12.2989   8.7872  29.0047   Oco2      1 RES1   0.0000
   135 O64     14.4533  17.9650  29.0047   Oco2      1 RES1   0.0000
   136 O65     15.5823  14.4533  26.6220   Oco2      1 RES1   0.0000
   137 O66     15.5823  12.2989  35.7998   Oco2      1 RES1   0.0000
   138 O67     11.1699  12.2989  26.6220   Oco2      1 RES1   0.0000
   139 O68     11.1699  14.4533  35.7998   Oco2      1 RES1   0.0000
   140 O69      8.7872  15.5823  32.2881   Oco2      1 RES1   0.0000
   141 O70     17.9650  15.5823  30.1337   Oco2      1 RES1   0.0000
   142 O71      8.7872  11.1699  30.1337   Oco2      1 RES1   0.0000
   143 O72     17.9650  11.1699  32.2881   Oco2      1 RES1   0.0000
   144 O81      9.3437  16.2190  21.5587   Oco2      1 RES1   0.0000
   145 O82     17.4085  16.2190  23.0283   Oco2      1 RES1   0.0000
   146 O83      9.3437  10.5332  23.0283   Oco2      1 RES1   0.0000
   147 O84     17.4085  10.5332  21.5587   Oco2      1 RES1   0.0000
   148 O87     12.6413   8.4911  25.1364   Oco2      1 RES1   0.0000
   149 C11     12.2900   8.4894  23.8915   C.2       1 RES1   0.0000
   150 C12     14.4622   8.4894  20.6955   C.2       1 RES1   0.0000
   151 C17     17.4068  14.9741  23.3796   C.2       1 RES1   0.0000
   152 C18     17.4068  11.7781  21.2074   C.2       1 RES1   0.0000
   153 C19      9.3454  11.7781  23.3796   C.2       1 RES1   0.0000
   154 C20      9.3454  14.9741  21.2074   C.2       1 RES1   0.0000
   155 C35     13.4742   8.4840  22.9320   C.2       1 RES1   0.0000
   156 C36     13.2780   8.4840  21.6550   C.2       1 RES1   0.0000
   157 C41     17.4014  14.0146  22.1954   C.2       1 RES1   0.0000
   158 C42     17.4014  12.7376  22.3916   C.2       1 RES1   0.0000
   159 C43      9.3508  12.7376  22.1954   C.2       1 RES1   0.0000
   160 C44      9.3508  14.0146  22.3916   C.2       1 RES1   0.0000
   161 H11     14.3427   8.4822  23.2655   H         1 RES1   0.0000
   162 H12     12.4095   8.4822  21.3215   H         1 RES1   0.0000
   163 H17     17.3996  14.3481  21.3269   H         1 RES1   0.0000
   164 H18     17.3996  12.4041  23.2601   H         1 RES1   0.0000
   165 H19      9.3526  12.4041  21.3269   H         1 RES1   0.0000
   166 H20      9.3526  14.3481  23.2601   H         1 RES1   0.0000
   167 C61     14.4355  11.7745  35.6696   C.2       1 RES1   0.0000
   168 C62     12.3167  14.9777  35.6696   C.2       1 RES1   0.0000
   169 C63     12.3167  11.7745  26.7522   C.2       1 RES1   0.0000
   170 C64     14.4355  14.9777  26.7522   C.2       1 RES1   0.0000
   171 C65     17.8348  14.4355  29.6093   C.2       1 RES1   0.0000
   172 C66     17.8348  12.3167  32.8125   C.2       1 RES1   0.0000
   173 C67      8.9174  12.3167  29.6093   C.2       1 RES1   0.0000
   174 C68      8.9174  14.4355  32.8125   C.2       1 RES1   0.0000
   175 C69     11.7745  17.8348  32.2703   C.2       1 RES1   0.0000
   176 C70     14.9777  17.8348  30.1515   C.2       1 RES1   0.0000
   177 C71     11.7745   8.9174  30.1515   C.2       1 RES1   0.0000
   178 C72     14.9777   8.9174  32.2703   C.2       1 RES1   0.0000
   179 C85     13.2566  12.7251  35.6678   C.2       1 RES1   0.0000
   180 C86     13.4956  14.0271  35.6678   C.2       1 RES1   0.0000
   181 C87     13.4956  12.7251  26.7540   C.2       1 RES1   0.0000
   182 C88     13.2566  14.0271  26.7540   C.2       1 RES1   0.0000
   183 C89     17.8330  13.2566  30.5599   C.2       1 RES1   0.0000
   184 C90     17.8330  13.4956  31.8619   C.2       1 RES1   0.0000
   185 C91      8.9192  13.4956  30.5599   C.2       1 RES1   0.0000
   186 C92      8.9192  13.2566  31.8619   C.2       1 RES1   0.0000
   187 C93     12.7251  17.8330  31.0914   C.2       1 RES1   0.0000
   188 C94     14.0271  17.8330  31.3304   C.2       1 RES1   0.0000
   189 C95     12.7251   8.9192  31.3304   C.2       1 RES1   0.0000
   190 C96     14.0271   8.9192  31.0914   C.2       1 RES1   0.0000
   191 H37     12.3845  12.4023  35.6678   H         1 RES1   0.0000
   192 H38     14.3677  14.3499  35.6678   H         1 RES1   0.0000
   193 H39     14.3677  12.4023  26.7540   H         1 RES1   0.0000
   194 H40     12.3845  14.3499  26.7540   H         1 RES1   0.0000
   195 H41     17.8330  12.3845  30.2371   H         1 RES1   0.0000
   196 H42     17.8330  14.3677  32.1847   H         1 RES1   0.0000
   197 H43      8.9192  14.3677  30.2371   H         1 RES1   0.0000
   198 H44      8.9192  12.3845  32.1847   H         1 RES1   0.0000
   199 H45     12.4023  17.8330  30.2193   H         1 RES1   0.0000
   200 H46     14.3499  17.8330  32.2025   H         1 RES1   0.0000
   201 H47     12.4023   8.9192  32.2025   H         1 RES1   0.0000
   202 H48     14.3499   8.9192  30.2193   H         1 RES1   0.0000
   203 O98      7.5530  16.1993  34.5157   O3        1 RES1   0.0000
   204 O99      7.5530  10.5529  27.9061   O3        1 RES1   0.0000
   205 O102    16.6809   7.5530  34.0341   O3        1 RES1   0.0000
   206 O103    10.0713   7.5530  28.3877   O3        1 RES1   0.0000
   207 O105    10.5529  16.6809  19.1992   O3        1 RES1   0.0000
   208 O106    16.1993  16.6809  25.3878   O3        1 RES1   0.0000
   209 O107    10.5529  10.0713  25.3878   O3        1 RES1   0.0000
   210 O111    10.2818   7.2819  25.5983   O3        1 RES1   0.0000
   211 O115     7.7635  10.2818  25.1167   O3        1 RES1   0.0000
   212 O116     7.7635  16.4704  19.4703   O3        1 RES1   0.0000
   213 O119     7.2819   7.7635  28.1166   O3        1 RES1   0.0000
   214 O155     7.5174   7.5174  25.3522   O3        1 RES1   0.0000
   215 O157    16.4348  10.3174  34.2696   O3        1 RES1   0.0000
   216 O158    10.3174  16.4348  34.2696   O3        1 RES1   0.0000
   217 O159    10.3174  10.3174  28.1522   O3        1 RES1   0.0000
   218 O160    16.4348  16.4348  28.1522   O3        1 RES1   0.0000
   219 Zr1     20.2933   9.1159  18.0467   Zr        1 RES1   0.0000
   220 Zr2      6.4589  17.6363  35.8815   Zr        1 RES1   0.0000
   221 Zr4     20.2933  17.6363  26.5403   Zr        1 RES1   0.0000
   222 Zr6     18.0467   6.4589  35.4711   Zr        1 RES1   0.0000
   223 Zr8      8.7055  20.2933  35.4711   Zr        1 RES1   0.0000
   224 Zr9      9.1159  18.0467  20.2933   Zr        1 RES1   0.0000
   225 Zr10    17.6363  18.0467  24.2937   Zr        1 RES1   0.0000
   226 Zr12    17.6363   8.7055  38.1281   Zr        1 RES1   0.0000
   227 Zr14    11.3759  18.0333  35.4577   Zr        1 RES1   0.0000
   228 Zr16    15.3763  18.0333  26.9641   Zr        1 RES1   0.0000
   229 Zr18    17.6229  11.3759  35.8681   Zr        1 RES1   0.0000
   230 Zr20     9.1293  15.3763  35.8681   Zr        1 RES1   0.0000
   231 Zr22    18.0333  17.6229  29.2107   Zr        1 RES1   0.0000
   232 Zr24    18.0333   9.1293  33.2111   Zr        1 RES1   0.0000
   233 O12     19.4667   8.7747  21.5623   Oco2      1 RES1   0.0000
   234 O85     14.1109   8.4911  37.2854   Oco2      1 RES1   0.0000
   235 O89     19.4506  14.1109  26.3259   Oco2      1 RES1   0.0000
   236 O90     19.4506  12.6413  18.2611   Oco2      1 RES1   0.0000
   237 O93      8.4911  19.4506  31.9457   Oco2      1 RES1   0.0000
   238 O97     19.1992  10.5529  16.6809   O3        1 RES1   0.0000
   239 O100    19.1992  16.1993  27.9061   O3        1 RES1   0.0000
   240 O104    10.0713  19.1992  34.0341   O3        1 RES1   0.0000
   241 O108    16.1993  10.0713  37.0340   O3        1 RES1   0.0000
   242 O109    16.4704   7.2819  36.8235   O3        1 RES1   0.0000
   243 O113    18.9887  16.4704  25.1167   O3        1 RES1   0.0000
   244 O114    18.9887  10.2818  19.4703   O3        1 RES1   0.0000
   245 O117     7.2819  18.9887  34.3052   O3        1 RES1   0.0000
   246 O153    19.2348   7.5174  19.2348   O3        1 RES1   0.0000
   247 O154     7.5174  19.2348  19.2348   O3        1 RES1   0.0000
   248 Zr3      6.4589   9.1159  44.3751   Zr        1 RES1   0.0000
   249 Zr7      8.7055   6.4589  44.7855   Zr        1 RES1   0.0000
   250 Zr11     9.1159   8.7055  42.1285   Zr        1 RES1   0.0000
   251 Zr15    11.3759   8.7189  44.7989   Zr        1 RES1   0.0000
   252 Zr17    17.6229  15.3763  44.3885   Zr        1 RES1   0.0000
   253 Zr19     9.1293  11.3759  44.3885   Zr        1 RES1   0.0000
   254 Zr23     8.7189   9.1293  47.0455   Zr        1 RES1   0.0000
   255 O15     12.6449  10.5493  44.7297   Oco2      1 RES1   0.0000
   256 O16     14.1073  16.2029  44.7297   Oco2      1 RES1   0.0000
   257 O35     11.1396   8.4787  41.1913   Oco2      1 RES1   0.0000
   258 O36     15.6126   8.4787  39.0653   Oco2      1 RES1   0.0000
   259 O41     17.3961  14.4391  42.3648   Oco2      1 RES1   0.0000
   260 O42     17.3961  12.3131  37.8918   Oco2      1 RES1   0.0000
   261 O43      9.3561  12.3131  42.3648   Oco2      1 RES1   0.0000
   262 O44      9.3561  14.4391  37.8918   Oco2      1 RES1   0.0000
   263 O65     15.5823  14.4533  44.4568   Oco2      1 RES1   0.0000
   264 O67     11.1699  12.2989  44.4568   Oco2      1 RES1   0.0000
   265 O81      9.3437  16.2190  39.3935   Oco2      1 RES1   0.0000
   266 O82     17.4085  16.2190  40.8631   Oco2      1 RES1   0.0000
   267 O83      9.3437  10.5332  40.8631   Oco2      1 RES1   0.0000
   268 O84     17.4085  10.5332  39.3935   Oco2      1 RES1   0.0000
   269 O87     12.6413   8.4911  42.9712   Oco2      1 RES1   0.0000
   270 C11     12.2900   8.4894  41.7263   C.2       1 RES1   0.0000
   271 C12     14.4622   8.4894  38.5303   C.2       1 RES1   0.0000
   272 C17     17.4068  14.9741  41.2144   C.2       1 RES1   0.0000
   273 C18     17.4068  11.7781  39.0422   C.2       1 RES1   0.0000
   274 C19      9.3454  11.7781  41.2144   C.2       1 RES1   0.0000
   275 C20      9.3454  14.9741  39.0422   C.2       1 RES1   0.0000
   276 C35     13.4742   8.4840  40.7668   C.2       1 RES1   0.0000
   277 C36     13.2780   8.4840  39.4898   C.2       1 RES1   0.0000
   278 C41     17.4014  14.0146  40.0302   C.2       1 RES1   0.0000
   279 C42     17.4014  12.7376  40.2264   C.2       1 RES1   0.0000
   280 C43      9.3508  12.7376  40.0302   C.2       1 RES1   0.0000
   281 C44      9.3508  14.0146  40.2264   C.2       1 RES1   0.0000
   282 H11     14.3427   8.4822  41.1003   H         1 RES1   0.0000
   283 H12     12.4095   8.4822  39.1563   H         1 RES1   0.0000
   284 H17     17.3996  14.3481  39.1617   H         1 RES1   0.0000
   285 H18     17.3996  12.4041  41.0949   H         1 RES1   0.0000
   286 H19      9.3526  12.4041  39.1617   H         1 RES1   0.0000
   287 H20      9.3526  14.3481  41.0949   H         1 RES1   0.0000
   288 C63     12.3167  11.7745  44.5870   C.2       1 RES1   0.0000
   289 C64     14.4355  14.9777  44.5870   C.2       1 RES1   0.0000
   290 C87     13.4956  12.7251  44.5888   C.2       1 RES1   0.0000
   291 C88     13.2566  14.0271  44.5888   C.2       1 RES1   0.0000
   292 H39     14.3677  12.4023  44.5888   H         1 RES1   0.0000
   293 H40     12.3845  14.3499  44.5888   H         1 RES1   0.0000
   294 O99      7.5530  10.5529  45.7409   O3        1 RES1   0.0000
   295 O103    10.0713   7.5530  46.2225   O3        1 RES1   0.0000
   296 O105    10.5529  16.6809  37.0340   O3        1 RES1   0.0000
   297 O106    16.1993  16.6809  43.2226   O3        1 RES1   0.0000
   298 O107    10.5529  10.0713  43.2226   O3        1 RES1   0.0000
   299 O111    10.2818   7.2819  43.4331   O3        1 RES1   0.0000
   300 O115     7.7635  10.2818  42.9515   O3        1 RES1   0.0000
   301 O116     7.7635  16.4704  37.3051   O3        1 RES1   0.0000
   302 O119     7.2819   7.7635  45.9514   O3        1 RES1   0.0000
   303 O155     7.5174   7.5174  43.1870   O3        1 RES1   0.0000
   304 O159    10.3174  10.3174  45.9870   O3        1 RES1   0.0000
   305 O160    16.4348  16.4348  45.9870   O3        1 RES1   0.0000
   306 Zr1     20.2933   9.1159  35.8815   Zr        1 RES1   0.0000
   307 Zr4     20.2933  17.6363  44.3751   Zr        1 RES1   0.0000
   308 Zr9      9.1159  18.0467  38.1281   Zr        1 RES1   0.0000
   309 Zr10    17.6363  18.0467  42.1285   Zr        1 RES1   0.0000
   310 Zr16    15.3763  18.0333  44.7989   Zr        1 RES1   0.0000
   311 Zr22    18.0333  17.6229  47.0455   Zr        1 RES1   0.0000
   312 O12     19.4667   8.7747  39.3971   Oco2      1 RES1   0.0000
   313 O89     19.4506  14.1109  44.1607   Oco2      1 RES1   0.0000
   314 O90     19.4506  12.6413  36.0959   Oco2      1 RES1   0.0000
   315 O97     19.1992  10.5529  34.5157   O3        1 RES1   0.0000
   316 O100    19.1992  16.1993  45.7409   O3        1 RES1   0.0000
   317 O113    18.9887  16.4704  42.9515   O3        1 RES1   0.0000
   318 O114    18.9887  10.2818  37.3051   O3        1 RES1   0.0000
   319 O153    19.2348   7.5174  37.0696   O3        1 RES1   0.0000
   320 O154     7.5174  19.2348  37.0696   O3        1 RES1   0.0000
   321 Zr3      6.4589  26.9507   8.7055   Zr        1 RES1   0.0000
   322 Zr7      8.7055  24.2937   9.1159   Zr        1 RES1   0.0000
   323 Zr11     9.1159  26.5403   6.4589   Zr        1 RES1   0.0000
   324 Zr13    15.3763  26.5537  17.6229   Zr        1 RES1   0.0000
   325 Zr15    11.3759  26.5537   9.1293   Zr        1 RES1   0.0000
   326 Zr17    17.6229  33.2111   8.7189   Zr        1 RES1   0.0000
   327 Zr19     9.1293  29.2107   8.7189   Zr        1 RES1   0.0000
   328 Zr21     8.7189  35.4577  15.3763   Zr        1 RES1   0.0000
   329 Zr23     8.7189  26.9641  11.3759   Zr        1 RES1   0.0000
   330 O13     14.1073  28.3841  17.6921   Oco2      1 RES1   0.0000
   331 O14     12.6449  34.0377  17.6921   Oco2      1 RES1   0.0000
   332 O15     12.6449  28.3841   9.0601   Oco2      1 RES1   0.0000
   333 O16     14.1073  34.0377   9.0601   Oco2      1 RES1   0.0000
   334 O17     17.6921  31.9421  10.5493   Oco2      1 RES1   0.0000
   335 O18     17.6921  30.4797  16.2029   Oco2      1 RES1   0.0000
   336 O19      9.0601  30.4797  10.5493   Oco2      1 RES1   0.0000
   337 O20      9.0601  31.9421  16.2029   Oco2      1 RES1   0.0000
   338 O21     10.5493  35.5269  14.1073   Oco2      1 RES1   0.0000
   339 O22     16.2029  35.5269  12.6449   Oco2      1 RES1   0.0000
   340 O23     10.5493  26.8949  12.6449   Oco2      1 RES1   0.0000
   341 O24     16.2029  26.8949  14.1073   Oco2      1 RES1   0.0000
   342 O31      8.4787  23.3565  11.1396   Oco2      1 RES1   0.0000
   343 O32      8.4787  21.2305  15.6126   Oco2      1 RES1   0.0000
   344 O37     14.4391  24.5300  17.3961   Oco2      1 RES1   0.0000
   345 O38     12.3131  20.0570  17.3961   Oco2      1 RES1   0.0000
   346 O39     12.3131  24.5300   9.3561   Oco2      1 RES1   0.0000
   347 O40     14.4391  20.0570   9.3561   Oco2      1 RES1   0.0000
   348 O61     14.4533  26.6220  15.5823   Oco2      1 RES1   0.0000
   349 O62     12.2989  35.7998  15.5823   Oco2      1 RES1   0.0000
   350 O63     12.2989  26.6220  11.1699   Oco2      1 RES1   0.0000
   351 O64     14.4533  35.7998  11.1699   Oco2      1 RES1   0.0000
   352 O65     15.5823  32.2881   8.7872   Oco2      1 RES1   0.0000
   353 O66     15.5823  30.1337  17.9650   Oco2      1 RES1   0.0000
   354 O67     11.1699  30.1337   8.7872   Oco2      1 RES1   0.0000
   355 O68     11.1699  32.2881  17.9650   Oco2      1 RES1   0.0000
   356 O69      8.7872  33.4171  14.4533   Oco2      1 RES1   0.0000
   357 O70     17.9650  33.4171  12.2989   Oco2      1 RES1   0.0000
   358 O71      8.7872  29.0047  12.2989   Oco2      1 RES1   0.0000
   359 O72     17.9650  29.0047  14.4533   Oco2      1 RES1   0.0000
   360 O77     16.2190  21.5587   9.3437   Oco2      1 RES1   0.0000
   361 O78     16.2190  23.0283  17.4085   Oco2      1 RES1   0.0000
   362 O79     10.5332  23.0283   9.3437   Oco2      1 RES1   0.0000
   363 O80     10.5332  21.5587  17.4085   Oco2      1 RES1   0.0000
   364 O95      8.4911  25.1364  12.6413   Oco2      1 RES1   0.0000
   365 C7       8.4894  23.8915  12.2900   C.2       1 RES1   0.0000
   366 C8       8.4894  20.6955  14.4622   C.2       1 RES1   0.0000
   367 C13     14.9741  23.3796  17.4068   C.2       1 RES1   0.0000
   368 C14     11.7781  21.2074  17.4068   C.2       1 RES1   0.0000
   369 C15     11.7781  23.3796   9.3454   C.2       1 RES1   0.0000
   370 C16     14.9741  21.2074   9.3454   C.2       1 RES1   0.0000
   371 C31      8.4840  22.9320  13.4742   C.2       1 RES1   0.0000
   372 C32      8.4840  21.6550  13.2780   C.2       1 RES1   0.0000
   373 C37     14.0146  22.1954  17.4014   C.2       1 RES1   0.0000
   374 C38     12.7376  22.3916  17.4014   C.2       1 RES1   0.0000
   375 C39     12.7376  22.1954   9.3508   C.2       1 RES1   0.0000
   376 C40     14.0146  22.3916   9.3508   C.2       1 RES1   0.0000
   377 H7       8.4822  23.2655  14.3427   H         1 RES1   0.0000
   378 H8       8.4822  21.3215  12.4095   H         1 RES1   0.0000
   379 H13     14.3481  21.3269  17.3996   H         1 RES1   0.0000
   380 H14     12.4041  23.2601  17.3996   H         1 RES1   0.0000
   381 H15     12.4041  21.3269   9.3526   H         1 RES1   0.0000
   382 H16     14.3481  23.2601   9.3526   H         1 RES1   0.0000
   383 C61     14.4355  29.6093  17.8348   C.2       1 RES1   0.0000
   384 C62     12.3167  32.8125  17.8348   C.2       1 RES1   0.0000
   385 C63     12.3167  29.6093   8.9174   C.2       1 RES1   0.0000
   386 C64     14.4355  32.8125   8.9174   C.2       1 RES1   0.0000
   387 C65     17.8348  32.2703  11.7745   C.2       1 RES1   0.0000
   388 C66     17.8348  30.1515  14.9777   C.2       1 RES1   0.0000
   389 C67      8.9174  30.1515  11.7745   C.2       1 RES1   0.0000
   390 C68      8.9174  32.2703  14.9777   C.2       1 RES1   0.0000
   391 C69     11.7745  35.6696  14.4355   C.2       1 RES1   0.0000
   392 C70     14.9777  35.6696  12.3167   C.2       1 RES1   0.0000
   393 C71     11.7745  26.7522  12.3167   C.2       1 RES1   0.0000
   394 C72     14.9777  26.7522  14.4355   C.2       1 RES1   0.0000
   395 C85     13.2566  30.5599  17.8330   C.2       1 RES1   0.0000
   396 C86     13.4956  31.8619  17.8330   C.2       1 RES1   0.0000
   397 C87     13.4956  30.5599   8.9192   C.2       1 RES1   0.0000
   398 C88     13.2566  31.8619   8.9192   C.2       1 RES1   0.0000
   399 C89     17.8330  31.0914  12.7251   C.2       1 RES1   0.0000
   400 C90     17.8330  31.3304  14.0271   C.2       1 RES1   0.0000
   401 C91      8.9192  31.3304  12.7251   C.2       1 RES1   0.0000
   402 C92      8.9192  31.0914  14.0271   C.2       1 RES1   0.0000
   403 C93     12.7251  35.6678  13.2566   C.2       1 RES1   0.0000
   404 C94     14.0271  35.6678  13.4956   C.2       1 RES1   0.0000
   405 C95     12.7251  26.7540  13.4956   C.2       1 RES1   0.0000
   406 C96     14.0271  26.7540  13.2566   C.2       1 RES1   0.0000
   407 H37     12.3845  30.2371  17.8330   H         1 RES1   0.0000
   408 H38     14.3677  32.1847  17.8330   H         1 RES1   0.0000
   409 H39     14.3677  30.2371   8.9192   H         1 RES1   0.0000
   410 H40     12.3845  32.1847   8.9192   H         1 RES1   0.0000
   411 H41     17.8330  30.2193  12.4023   H         1 RES1   0.0000
   412 H42     17.8330  32.2025  14.3499   H         1 RES1   0.0000
   413 H43      8.9192  32.2025  12.4023   H         1 RES1   0.0000
   414 H44      8.9192  30.2193  14.3499   H         1 RES1   0.0000
   415 H45     12.4023  35.6678  12.3845   H         1 RES1   0.0000
   416 H46     14.3499  35.6678  14.3677   H         1 RES1   0.0000
   417 H47     12.4023  26.7540  14.3677   H         1 RES1   0.0000
   418 H48     14.3499  26.7540  12.3845   H         1 RES1   0.0000
   419 O98      7.5530  34.0341  16.6809   O3        1 RES1   0.0000
   420 O99      7.5530  28.3877  10.0713   O3        1 RES1   0.0000
   421 O101    16.6809  19.1992  10.5529   O3        1 RES1   0.0000
   422 O102    16.6809  25.3878  16.1993   O3        1 RES1   0.0000
   423 O103    10.0713  25.3878  10.5529   O3        1 RES1   0.0000
   424 O106    16.1993  34.5157   7.5530   O3        1 RES1   0.0000
   425 O107    10.5529  27.9061   7.5530   O3        1 RES1   0.0000
   426 O111    10.2818  25.1167   7.7635   O3        1 RES1   0.0000
   427 O112    16.4704  19.4703   7.7635   O3        1 RES1   0.0000
   428 O115     7.7635  28.1166   7.2819   O3        1 RES1   0.0000
   429 O119     7.2819  25.5983  10.2818   O3        1 RES1   0.0000
   430 O155     7.5174  25.3522   7.5174   O3        1 RES1   0.0000
   431 O157    16.4348  28.1522  16.4348   O3        1 RES1   0.0000
   432 O158    10.3174  34.2696  16.4348   O3        1 RES1   0.0000
   433 O159    10.3174  28.1522  10.3174   O3        1 RES1   0.0000
   434 O160    16.4348  34.2696  10.3174   O3        1 RES1   0.0000
   435 Zr2      6.4589  35.4711  18.0467   Zr        1 RES1   0.0000
   436 Zr4     20.2933  35.4711   8.7055   Zr        1 RES1   0.0000
   437 Zr5     18.0467  20.2933   9.1159   Zr        1 RES1   0.0000
   438 Zr6     18.0467  24.2937  17.6363   Zr        1 RES1   0.0000
   439 Zr8      8.7055  38.1281  17.6363   Zr        1 RES1   0.0000
   440 Zr10    17.6363  35.8815   6.4589   Zr        1 RES1   0.0000
   441 Zr12    17.6363  26.5403  20.2933   Zr        1 RES1   0.0000
   442 Zr14    11.3759  35.8681  17.6229   Zr        1 RES1   0.0000
   443 Zr16    15.3763  35.8681   9.1293   Zr        1 RES1   0.0000
   444 Zr18    17.6229  29.2107  18.0333   Zr        1 RES1   0.0000
   445 Zr20     9.1293  33.2111  18.0333   Zr        1 RES1   0.0000
   446 Zr22    18.0333  35.4577  11.3759   Zr        1 RES1   0.0000
   447 Zr24    18.0333  26.9641  15.3763   Zr        1 RES1   0.0000
   448 O8       8.7747  21.5623  19.4667   Oco2      1 RES1   0.0000
   449 O85     14.1109  26.3259  19.4506   Oco2      1 RES1   0.0000
   450 O86     12.6413  18.2611  19.4506   Oco2      1 RES1   0.0000
   451 O89     19.4506  31.9457   8.4911   Oco2      1 RES1   0.0000
   452 O93      8.4911  37.2854  14.1109   Oco2      1 RES1   0.0000
   453 O100    19.1992  34.0341  10.0713   O3        1 RES1   0.0000
   454 O104    10.0713  37.0340  16.1993   O3        1 RES1   0.0000
   455 O108    16.1993  27.9061  19.1992   O3        1 RES1   0.0000
   456 O109    16.4704  25.1167  18.9887   O3        1 RES1   0.0000
   457 O110    10.2818  19.4703  18.9887   O3        1 RES1   0.0000
   458 O113    18.9887  34.3052   7.2819   O3        1 RES1   0.0000
   459 O117     7.2819  36.8235  16.4704   O3        1 RES1   0.0000
   460 O156    19.2348  19.2348   7.5174   O3        1 RES1   0.0000
   461 Zr3      6.4589  26.9507  26.5403   Zr        1 RES1   0.0000
   462 Zr7      8.7055  24.2937  26.9507   Zr        1 RES1   0.0000
   463 Zr11     9.1159  26.5403  24.2937   Zr        1 RES1   0.0000
   464 Zr13    15.3763  26.5537  35.4577   Zr        1 RES1   0.0000
   465 Zr15    11.3759  26.5537  26.9641   Zr        1 RES1   0.0000
   466 Zr17    17.6229  33.2111  26.5537   Zr        1 RES1   0.0000
   467 Zr19     9.1293  29.2107  26.5537   Zr        1 RES1   0.0000
   468 Zr21     8.7189  35.4577  33.2111   Zr        1 RES1   0.0000
   469 Zr23     8.7189  26.9641  29.2107   Zr        1 RES1   0.0000
   470 O7       8.7747  23.0247  25.1203   Oco2      1 RES1   0.0000
   471 O13     14.1073  28.3841  35.5269   Oco2      1 RES1   0.0000
   472 O14     12.6449  34.0377  35.5269   Oco2      1 RES1   0.0000
   473 O15     12.6449  28.3841  26.8949   Oco2      1 RES1   0.0000
   474 O16     14.1073  34.0377  26.8949   Oco2      1 RES1   0.0000
   475 O17     17.6921  31.9421  28.3841   Oco2      1 RES1   0.0000
   476 O18     17.6921  30.4797  34.0377   Oco2      1 RES1   0.0000
   477 O19      9.0601  30.4797  28.3841   Oco2      1 RES1   0.0000
   478 O20      9.0601  31.9421  34.0377   Oco2      1 RES1   0.0000
   479 O21     10.5493  35.5269  31.9421   Oco2      1 RES1   0.0000
   480 O22     16.2029  35.5269  30.4797   Oco2      1 RES1   0.0000
   481 O23     10.5493  26.8949  30.4797   Oco2      1 RES1   0.0000
   482 O24     16.2029  26.8949  31.9421   Oco2      1 RES1   0.0000
   483 O31      8.4787  23.3565  28.9744   Oco2      1 RES1   0.0000
   484 O32      8.4787  21.2305  33.4474   Oco2      1 RES1   0.0000
   485 O33     11.1396  18.2735  21.2305   Oco2      1 RES1   0.0000
   486 O34     15.6126  18.2735  23.3565   Oco2      1 RES1   0.0000
   487 O35     11.1396  26.3135  23.3565   Oco2      1 RES1   0.0000
   488 O36     15.6126  26.3135  21.2305   Oco2      1 RES1   0.0000
   489 O37     14.4391  24.5300  35.2309   Oco2      1 RES1   0.0000
   490 O38     12.3131  20.0570  35.2309   Oco2      1 RES1   0.0000
   491 O39     12.3131  24.5300  27.1909   Oco2      1 RES1   0.0000
   492 O40     14.4391  20.0570  27.1909   Oco2      1 RES1   0.0000
   493 O41     17.3961  32.2739  24.5300   Oco2      1 RES1   0.0000
   494 O42     17.3961  30.1479  20.0570   Oco2      1 RES1   0.0000
   495 O43      9.3561  30.1479  24.5300   Oco2      1 RES1   0.0000
   496 O44      9.3561  32.2739  20.0570   Oco2      1 RES1   0.0000
   497 O57      9.0476  20.0873  21.2163   Oco2      1 RES1   0.0000
   498 O59      9.0476  24.4997  23.3707   Oco2      1 RES1   0.0000
   499 O61     14.4533  26.6220  33.4171   Oco2      1 RES1   0.0000
   500 O62     12.2989  35.7998  33.4171   Oco2      1 RES1   0.0000
   501 O63     12.2989  26.6220  29.0047   Oco2      1 RES1   0.0000
   502 O64     14.4533  35.7998  29.0047   Oco2      1 RES1   0.0000
   503 O65     15.5823  32.2881  26.6220   Oco2      1 RES1   0.0000
   504 O66     15.5823  30.1337  35.7998   Oco2      1 RES1   0.0000
   505 O67     11.1699  30.1337  26.6220   Oco2      1 RES1   0.0000
   506 O68     11.1699  32.2881  35.7998   Oco2      1 RES1   0.0000
   507 O69      8.7872  33.4171  32.2881   Oco2      1 RES1   0.0000
   508 O70     17.9650  33.4171  30.1337   Oco2      1 RES1   0.0000
   509 O71      8.7872  29.0047  30.1337   Oco2      1 RES1   0.0000
   510 O72     17.9650  29.0047  32.2881   Oco2      1 RES1   0.0000
   511 O77     16.2190  21.5587  27.1785   Oco2      1 RES1   0.0000
   512 O78     16.2190  23.0283  35.2433   Oco2      1 RES1   0.0000
   513 O79     10.5332  23.0283  27.1785   Oco2      1 RES1   0.0000
   514 O80     10.5332  21.5587  35.2433   Oco2      1 RES1   0.0000
   515 O81      9.3437  34.0538  21.5587   Oco2      1 RES1   0.0000
   516 O82     17.4085  34.0538  23.0283   Oco2      1 RES1   0.0000
   517 O83      9.3437  28.3680  23.0283   Oco2      1 RES1   0.0000
   518 O84     17.4085  28.3680  21.5587   Oco2      1 RES1   0.0000
   519 O87     12.6413  26.3259  25.1364   Oco2      1 RES1   0.0000
   520 O88     14.1109  18.2611  25.1364   Oco2      1 RES1   0.0000
   521 O95      8.4911  25.1364  30.4761   Oco2      1 RES1   0.0000
   522 C7       8.4894  23.8915  30.1248   C.2       1 RES1   0.0000
   523 C8       8.4894  20.6955  32.2970   C.2       1 RES1   0.0000
   524 C9      12.2900  18.2628  20.6955   C.2       1 RES1   0.0000
   525 C10     14.4622  18.2628  23.8915   C.2       1 RES1   0.0000
   526 C11     12.2900  26.3242  23.8915   C.2       1 RES1   0.0000
   527 C12     14.4622  26.3242  20.6955   C.2       1 RES1   0.0000
   528 C13     14.9741  23.3796  35.2416   C.2       1 RES1   0.0000
   529 C14     11.7781  21.2074  35.2416   C.2       1 RES1   0.0000
   530 C15     11.7781  23.3796  27.1802   C.2       1 RES1   0.0000
   531 C16     14.9741  21.2074  27.1802   C.2       1 RES1   0.0000
   532 C17     17.4068  32.8089  23.3796   C.2       1 RES1   0.0000
   533 C18     17.4068  29.6129  21.2074   C.2       1 RES1   0.0000
   534 C19      9.3454  29.6129  23.3796   C.2       1 RES1   0.0000
   535 C20      9.3454  32.8089  21.2074   C.2       1 RES1   0.0000
   536 C31      8.4840  22.9320  31.3090   C.2       1 RES1   0.0000
   537 C32      8.4840  21.6550  31.1128   C.2       1 RES1   0.0000
   538 C33     13.4742  18.2682  21.6550   C.2       1 RES1   0.0000
   539 C34     13.2780  18.2682  22.9320   C.2       1 RES1   0.0000
   540 C35     13.4742  26.3188  22.9320   C.2       1 RES1   0.0000
   541 C36     13.2780  26.3188  21.6550   C.2       1 RES1   0.0000
   542 C37     14.0146  22.1954  35.2362   C.2       1 RES1   0.0000
   543 C38     12.7376  22.3916  35.2362   C.2       1 RES1   0.0000
   544 C39     12.7376  22.1954  27.1856   C.2       1 RES1   0.0000
   545 C40     14.0146  22.3916  27.1856   C.2       1 RES1   0.0000
   546 C41     17.4014  31.8494  22.1954   C.2       1 RES1   0.0000
   547 C42     17.4014  30.5724  22.3916   C.2       1 RES1   0.0000
   548 C43      9.3508  30.5724  22.1954   C.2       1 RES1   0.0000
   549 C44      9.3508  31.8494  22.3916   C.2       1 RES1   0.0000
   550 H7       8.4822  23.2655  32.1775   H         1 RES1   0.0000
   551 H8       8.4822  21.3215  30.2443   H         1 RES1   0.0000
   552 H9      14.3427  18.2700  21.3215   H         1 RES1   0.0000
   553 H10     12.4095  18.2700  23.2655   H         1 RES1   0.0000
   554 H11     14.3427  26.3170  23.2655   H         1 RES1   0.0000
   555 H12     12.4095  26.3170  21.3215   H         1 RES1   0.0000
   556 H13     14.3481  21.3269  35.2344   H         1 RES1   0.0000
   557 H14     12.4041  23.2601  35.2344   H         1 RES1   0.0000
   558 H15     12.4041  21.3269  27.1874   H         1 RES1   0.0000
   559 H16     14.3481  23.2601  27.1874   H         1 RES1   0.0000
   560 H17     17.3996  32.1829  21.3269   H         1 RES1   0.0000
   561 H18     17.3996  30.2389  23.2601   H         1 RES1   0.0000
   562 H19      9.3526  30.2389  21.3269   H         1 RES1   0.0000
   563 H20      9.3526  32.1829  23.2601   H         1 RES1   0.0000
   564 C55      8.9174  23.3529  23.8951   C.2       1 RES1   0.0000
   565 C56      8.9174  21.2341  20.6919   C.2       1 RES1   0.0000
   566 C61     14.4355  29.6093  35.6696   C.2       1 RES1   0.0000
   567 C62     12.3167  32.8125  35.6696   C.2       1 RES1   0.0000
   568 C63     12.3167  29.6093  26.7522   C.2       1 RES1   0.0000
   569 C64     14.4355  32.8125  26.7522   C.2       1 RES1   0.0000
   570 C65     17.8348  32.2703  29.6093   C.2       1 RES1   0.0000
   571 C66     17.8348  30.1515  32.8125   C.2       1 RES1   0.0000
   572 C67      8.9174  30.1515  29.6093   C.2       1 RES1   0.0000
   573 C68      8.9174  32.2703  32.8125   C.2       1 RES1   0.0000
   574 C69     11.7745  35.6696  32.2703   C.2       1 RES1   0.0000
   575 C70     14.9777  35.6696  30.1515   C.2       1 RES1   0.0000
   576 C71     11.7745  26.7522  30.1515   C.2       1 RES1   0.0000
   577 C72     14.9777  26.7522  32.2703   C.2       1 RES1   0.0000
   578 C79      8.9156  22.1740  22.9445   C.2       1 RES1   0.0000
   579 C80      8.9156  22.4130  21.6425   C.2       1 RES1   0.0000
   580 C85     13.2566  30.5599  35.6678   C.2       1 RES1   0.0000
   581 C86     13.4956  31.8619  35.6678   C.2       1 RES1   0.0000
   582 C87     13.4956  30.5599  26.7540   C.2       1 RES1   0.0000
   583 C88     13.2566  31.8619  26.7540   C.2       1 RES1   0.0000
   584 C89     17.8330  31.0914  30.5599   C.2       1 RES1   0.0000
   585 C90     17.8330  31.3304  31.8619   C.2       1 RES1   0.0000
   586 C91      8.9192  31.3304  30.5599   C.2       1 RES1   0.0000
   587 C92      8.9192  31.0914  31.8619   C.2       1 RES1   0.0000
   588 C93     12.7251  35.6678  31.0914   C.2       1 RES1   0.0000
   589 C94     14.0271  35.6678  31.3304   C.2       1 RES1   0.0000
   590 C95     12.7251  26.7540  31.3304   C.2       1 RES1   0.0000
   591 C96     14.0271  26.7540  31.0914   C.2       1 RES1   0.0000
   592 H31      8.9156  21.3019  23.2673   H         1 RES1   0.0000
   593 H32      8.9156  23.2851  21.3197   H         1 RES1   0.0000
   594 H37     12.3845  30.2371  35.6678   H         1 RES1   0.0000
   595 H38     14.3677  32.1847  35.6678   H         1 RES1   0.0000
   596 H39     14.3677  30.2371  26.7540   H         1 RES1   0.0000
   597 H40     12.3845  32.1847  26.7540   H         1 RES1   0.0000
   598 H41     17.8330  30.2193  30.2371   H         1 RES1   0.0000
   599 H42     17.8330  32.2025  32.1847   H         1 RES1   0.0000
   600 H43      8.9192  32.2025  30.2371   H         1 RES1   0.0000
   601 H44      8.9192  30.2193  32.1847   H         1 RES1   0.0000
   602 H45     12.4023  35.6678  30.2193   H         1 RES1   0.0000
   603 H46     14.3499  35.6678  32.2025   H         1 RES1   0.0000
   604 H47     12.4023  26.7540  32.2025   H         1 RES1   0.0000
   605 H48     14.3499  26.7540  30.2193   H         1 RES1   0.0000
   606 O98      7.5530  34.0341  34.5157   O3        1 RES1   0.0000
   607 O99      7.5530  28.3877  27.9061   O3        1 RES1   0.0000
   608 O101    16.6809  19.1992  28.3877   O3        1 RES1   0.0000
   609 O102    16.6809  25.3878  34.0341   O3        1 RES1   0.0000
   610 O103    10.0713  25.3878  28.3877   O3        1 RES1   0.0000
   611 O105    10.5529  34.5157  19.1992   O3        1 RES1   0.0000
   612 O106    16.1993  34.5157  25.3878   O3        1 RES1   0.0000
   613 O107    10.5529  27.9061  25.3878   O3        1 RES1   0.0000
   614 O111    10.2818  25.1167  25.5983   O3        1 RES1   0.0000
   615 O112    16.4704  19.4703  25.5983   O3        1 RES1   0.0000
   616 O115     7.7635  28.1166  25.1167   O3        1 RES1   0.0000
   617 O116     7.7635  34.3052  19.4703   O3        1 RES1   0.0000
   618 O119     7.2819  25.5983  28.1166   O3        1 RES1   0.0000
   619 O155     7.5174  25.3522  25.3522   O3        1 RES1   0.0000
   620 O157    16.4348  28.1522  34.2696   O3        1 RES1   0.0000
   621 O158    10.3174  34.2696  34.2696   O3        1 RES1   0.0000
   622 O159    10.3174  28.1522  28.1522   O3        1 RES1   0.0000
   623 O160    16.4348  34.2696  28.1522   O3        1 RES1   0.0000
   624 Zr1     20.2933  26.9507  18.0467   Zr        1 RES1   0.0000
   625 Zr2      6.4589  35.4711  35.8815   Zr        1 RES1   0.0000
   626 Zr4     20.2933  35.4711  26.5403   Zr        1 RES1   0.0000
   627 Zr5     18.0467  20.2933  26.9507   Zr        1 RES1   0.0000
   628 Zr6     18.0467  24.2937  35.4711   Zr        1 RES1   0.0000
   629 Zr8      8.7055  38.1281  35.4711   Zr        1 RES1   0.0000
   630 Zr9      9.1159  35.8815  20.2933   Zr        1 RES1   0.0000
   631 Zr10    17.6363  35.8815  24.2937   Zr        1 RES1   0.0000
   632 Zr12    17.6363  26.5403  38.1281   Zr        1 RES1   0.0000
   633 Zr14    11.3759  35.8681  35.4577   Zr        1 RES1   0.0000
   634 Zr16    15.3763  35.8681  26.9641   Zr        1 RES1   0.0000
   635 Zr18    17.6229  29.2107  35.8681   Zr        1 RES1   0.0000
   636 Zr20     9.1293  33.2111  35.8681   Zr        1 RES1   0.0000
   637 Zr22    18.0333  35.4577  29.2107   Zr        1 RES1   0.0000
   638 Zr24    18.0333  26.9641  33.2111   Zr        1 RES1   0.0000
   639 O8       8.7747  21.5623  37.3015   Oco2      1 RES1   0.0000
   640 O10     19.4667  17.9775  23.0247   Oco2      1 RES1   0.0000
   641 O12     19.4667  26.6095  21.5623   Oco2      1 RES1   0.0000
   642 O58     17.7046  20.0873  23.3707   Oco2      1 RES1   0.0000
   643 O60     17.7046  24.4997  21.2163   Oco2      1 RES1   0.0000
   644 O85     14.1109  26.3259  37.2854   Oco2      1 RES1   0.0000
   645 O86     12.6413  18.2611  37.2854   Oco2      1 RES1   0.0000
   646 O89     19.4506  31.9457  26.3259   Oco2      1 RES1   0.0000
   647 O90     19.4506  30.4761  18.2611   Oco2      1 RES1   0.0000
   648 O93      8.4911  37.2854  31.9457   Oco2      1 RES1   0.0000
   649 O97     19.1992  28.3877  16.6809   O3        1 RES1   0.0000
   650 O100    19.1992  34.0341  27.9061   O3        1 RES1   0.0000
   651 O104    10.0713  37.0340  34.0341   O3        1 RES1   0.0000
   652 O108    16.1993  27.9061  37.0340   O3        1 RES1   0.0000
   653 O109    16.4704  25.1167  36.8235   O3        1 RES1   0.0000
   654 O110    10.2818  19.4703  36.8235   O3        1 RES1   0.0000
   655 O113    18.9887  34.3052  25.1167   O3        1 RES1   0.0000
   656 O114    18.9887  28.1166  19.4703   O3        1 RES1   0.0000
   657 O117     7.2819  36.8235  34.3052   O3        1 RES1   0.0000
   658 O153    19.2348  25.3522  19.2348   O3        1 RES1   0.0000
   659 O154     7.5174  37.0696  19.2348   O3        1 RES1   0.0000
   660 O156    19.2348  19.2348  25.3522   O3        1 RES1   0.0000
   661 Zr3      6.4589  26.9507  44.3751   Zr        1 RES1   0.0000
   662 Zr7      8.7055  24.2937  44.7855   Zr        1 RES1   0.0000
   663 Zr11     9.1159  26.5403  42.1285   Zr        1 RES1   0.0000
   664 Zr15    11.3759  26.5537  44.7989   Zr        1 RES1   0.0000
   665 Zr17    17.6229  33.2111  44.3885   Zr        1 RES1   0.0000
   666 Zr19     9.1293  29.2107  44.3885   Zr        1 RES1   0.0000
   667 Zr23     8.7189  26.9641  47.0455   Zr        1 RES1   0.0000
   668 O7       8.7747  23.0247  42.9551   Oco2      1 RES1   0.0000
   669 O15     12.6449  28.3841  44.7297   Oco2      1 RES1   0.0000
   670 O16     14.1073  34.0377  44.7297   Oco2      1 RES1   0.0000
   671 O33     11.1396  18.2735  39.0653   Oco2      1 RES1   0.0000
   672 O34     15.6126  18.2735  41.1913   Oco2      1 RES1   0.0000
   673 O35     11.1396  26.3135  41.1913   Oco2      1 RES1   0.0000
   674 O36     15.6126  26.3135  39.0653   Oco2      1 RES1   0.0000
   675 O39     12.3131  24.5300  45.0257   Oco2      1 RES1   0.0000
   676 O40     14.4391  20.0570  45.0257   Oco2      1 RES1   0.0000
   677 O41     17.3961  32.2739  42.3648   Oco2      1 RES1   0.0000
   678 O42     17.3961  30.1479  37.8918   Oco2      1 RES1   0.0000
   679 O43      9.3561  30.1479  42.3648   Oco2      1 RES1   0.0000
   680 O44      9.3561  32.2739  37.8918   Oco2      1 RES1   0.0000
   681 O57      9.0476  20.0873  39.0511   Oco2      1 RES1   0.0000
   682 O59      9.0476  24.4997  41.2055   Oco2      1 RES1   0.0000
   683 O65     15.5823  32.2881  44.4568   Oco2      1 RES1   0.0000
   684 O67     11.1699  30.1337  44.4568   Oco2      1 RES1   0.0000
   685 O77     16.2190  21.5587  45.0133   Oco2      1 RES1   0.0000
   686 O79     10.5332  23.0283  45.0133   Oco2      1 RES1   0.0000
   687 O81      9.3437  34.0538  39.3935   Oco2      1 RES1   0.0000
   688 O82     17.4085  34.0538  40.8631   Oco2      1 RES1   0.0000
   689 O83      9.3437  28.3680  40.8631   Oco2      1 RES1   0.0000
   690 O84     17.4085  28.3680  39.3935   Oco2      1 RES1   0.0000
   691 O87     12.6413  26.3259  42.9712   Oco2      1 RES1   0.0000
   692 O88     14.1109  18.2611  42.9712   Oco2      1 RES1   0.0000
   693 C9      12.2900  18.2628  38.5303   C.2       1 RES1   0.0000
   694 C10     14.4622  18.2628  41.7263   C.2       1 RES1   0.0000
   695 C11     12.2900  26.3242  41.7263   C.2       1 RES1   0.0000
   696 C12     14.4622  26.3242  38.5303   C.2       1 RES1   0.0000
   697 C15     11.7781  23.3796  45.0150   C.2       1 RES1   0.0000
   698 C16     14.9741  21.2074  45.0150   C.2       1 RES1   0.0000
   699 C17     17.4068  32.8089  41.2144   C.2       1 RES1   0.0000
   700 C18     17.4068  29.6129  39.0422   C.2       1 RES1   0.0000
   701 C19      9.3454  29.6129  41.2144   C.2       1 RES1   0.0000
   702 C20      9.3454  32.8089  39.0422   C.2       1 RES1   0.0000
   703 C33     13.4742  18.2682  39.4898   C.2       1 RES1   0.0000
   704 C34     13.2780  18.2682  40.7668   C.2       1 RES1   0.0000
   705 C35     13.4742  26.3188  40.7668   C.2       1 RES1   0.0000
   706 C36     13.2780  26.3188  39.4898   C.2       1 RES1   0.0000
   707 C39     12.7376  22.1954  45.0204   C.2       1 RES1   0.0000
   708 C40     14.0146  22.3916  45.0204   C.2       1 RES1   0.0000
   709 C41     17.4014  31.8494  40.0302   C.2       1 RES1   0.0000
   710 C42     17.4014  30.5724  40.2264   C.2       1 RES1   0.0000
   711 C43      9.3508  30.5724  40.0302   C.2       1 RES1   0.0000
   712 C44      9.3508  31.8494  40.2264   C.2       1 RES1   0.0000
   713 H9      14.3427  18.2700  39.1563   H         1 RES1   0.0000
   714 H10     12.4095  18.2700  41.1003   H         1 RES1   0.0000
   715 H11     14.3427  26.3170  41.1003   H         1 RES1   0.0000
   716 H12     12.4095  26.3170  39.1563   H         1 RES1   0.0000
   717 H15     12.4041  21.3269  45.0222   H         1 RES1   0.0000
   718 H16     14.3481  23.2601  45.0222   H         1 RES1   0.0000
   719 H17     17.3996  32.1829  39.1617   H         1 RES1   0.0000
   720 H18     17.3996  30.2389  41.0949   H         1 RES1   0.0000
   721 H19      9.3526  30.2389  39.1617   H         1 RES1   0.0000
   722 H20      9.3526  32.1829  41.0949   H         1 RES1   0.0000
   723 C55      8.9174  23.3529  41.7299   C.2       1 RES1   0.0000
   724 C56      8.9174  21.2341  38.5267   C.2       1 RES1   0.0000
   725 C63     12.3167  29.6093  44.5870   C.2       1 RES1   0.0000
   726 C64     14.4355  32.8125  44.5870   C.2       1 RES1   0.0000
   727 C79      8.9156  22.1740  40.7793   C.2       1 RES1   0.0000
   728 C80      8.9156  22.4130  39.4773   C.2       1 RES1   0.0000
   729 C87     13.4956  30.5599  44.5888   C.2       1 RES1   0.0000
   730 C88     13.2566  31.8619  44.5888   C.2       1 RES1   0.0000
   731 H31      8.9156  21.3019  41.1021   H         1 RES1   0.0000
   732 H32      8.9156  23.2851  39.1545   H         1 RES1   0.0000
   733 H39     14.3677  30.2371  44.5888   H         1 RES1   0.0000
   734 H40     12.3845  32.1847  44.5888   H         1 RES1   0.0000
   735 O99      7.5530  28.3877  45.7409   O3        1 RES1   0.0000
   736 O101    16.6809  19.1992  46.2225   O3        1 RES1   0.0000
   737 O103    10.0713  25.3878  46.2225   O3        1 RES1   0.0000
   738 O105    10.5529  34.5157  37.0340   O3        1 RES1   0.0000
   739 O106    16.1993  34.5157  43.2226   O3        1 RES1   0.0000
   740 O107    10.5529  27.9061  43.2226   O3        1 RES1   0.0000
   741 O111    10.2818  25.1167  43.4331   O3        1 RES1   0.0000
   742 O112    16.4704  19.4703  43.4331   O3        1 RES1   0.0000
   743 O115     7.7635  28.1166  42.9515   O3        1 RES1   0.0000
   744 O116     7.7635  34.3052  37.3051   O3        1 RES1   0.0000
   745 O119     7.2819  25.5983  45.9514   O3        1 RES1   0.0000
   746 O155     7.5174  25.3522  43.1870   O3        1 RES1   0.0000
   747 O159    10.3174  28.1522  45.9870   O3        1 RES1   0.0000
   748 O160    16.4348  34.2696  45.9870   O3        1 RES1   0.0000
   749 Zr1     20.2933  26.9507  35.8815   Zr        1 RES1   0.0000
   750 Zr4     20.2933  35.4711  44.3751   Zr        1 RES1   0.0000
   751 Zr5     18.0467  20.2933  44.7855   Zr        1 RES1   0.0000
   752 Zr9      9.1159  35.8815  38.1281   Zr        1 RES1   0.0000
   753 Zr10    17.6363  35.8815  42.1285   Zr        1 RES1   0.0000
   754 Zr16    15.3763  35.8681  44.7989   Zr        1 RES1   0.0000
   755 Zr22    18.0333  35.4577  47.0455   Zr        1 RES1   0.0000
   756 O10     19.4667  17.9775  40.8595   Oco2      1 RES1   0.0000
   757 O12     19.4667  26.6095  39.3971   Oco2      1 RES1   0.0000
   758 O58     17.7046  20.0873  41.2055   Oco2      1 RES1   0.0000
   759 O60     17.7046  24.4997  39.0511   Oco2      1 RES1   0.0000
   760 O89     19.4506  31.9457  44.1607   Oco2      1 RES1   0.0000
   761 O90     19.4506  30.4761  36.0959   Oco2      1 RES1   0.0000
   762 O97     19.1992  28.3877  34.5157   O3        1 RES1   0.0000
   763 O100    19.1992  34.0341  45.7409   O3        1 RES1   0.0000
   764 O113    18.9887  34.3052  42.9515   O3        1 RES1   0.0000
   765 O114    18.9887  28.1166  37.3051   O3        1 RES1   0.0000
   766 O153    19.2348  25.3522  37.0696   O3        1 RES1   0.0000
   767 O154     7.5174  37.0696  37.0696   O3        1 RES1   0.0000
   768 O156    19.2348  19.2348  43.1870   O3        1 RES1   0.0000
   769 Zr3      6.4589  44.7855   8.7055   Zr        1 RES1   0.0000
   770 Zr7      8.7055  42.1285   9.1159   Zr        1 RES1   0.0000
   771 Zr11     9.1159  44.3751   6.4589   Zr        1 RES1   0.0000
   772 Zr13    15.3763  44.3885  17.6229   Zr        1 RES1   0.0000
   773 Zr15    11.3759  44.3885   9.1293   Zr        1 RES1   0.0000
   774 Zr19     9.1293  47.0455   8.7189   Zr        1 RES1   0.0000
   775 Zr23     8.7189  44.7989  11.3759   Zr        1 RES1   0.0000
   776 O23     10.5493  44.7297  12.6449   Oco2      1 RES1   0.0000
   777 O24     16.2029  44.7297  14.1073   Oco2      1 RES1   0.0000
   778 O31      8.4787  41.1913  11.1396   Oco2      1 RES1   0.0000
   779 O32      8.4787  39.0653  15.6126   Oco2      1 RES1   0.0000
   780 O37     14.4391  42.3648  17.3961   Oco2      1 RES1   0.0000
   781 O38     12.3131  37.8918  17.3961   Oco2      1 RES1   0.0000
   782 O39     12.3131  42.3648   9.3561   Oco2      1 RES1   0.0000
   783 O40     14.4391  37.8918   9.3561   Oco2      1 RES1   0.0000
   784 O61     14.4533  44.4568  15.5823   Oco2      1 RES1   0.0000
   785 O63     12.2989  44.4568  11.1699   Oco2      1 RES1   0.0000
   786 O77     16.2190  39.3935   9.3437   Oco2      1 RES1   0.0000
   787 O78     16.2190  40.8631  17.4085   Oco2      1 RES1   0.0000
   788 O79     10.5332  40.8631   9.3437   Oco2      1 RES1   0.0000
   789 O80     10.5332  39.3935  17.4085   Oco2      1 RES1   0.0000
   790 O95      8.4911  42.9712  12.6413   Oco2      1 RES1   0.0000
   791 C7       8.4894  41.7263  12.2900   C.2       1 RES1   0.0000
   792 C8       8.4894  38.5303  14.4622   C.2       1 RES1   0.0000
   793 C13     14.9741  41.2144  17.4068   C.2       1 RES1   0.0000
   794 C14     11.7781  39.0422  17.4068   C.2       1 RES1   0.0000
   795 C15     11.7781  41.2144   9.3454   C.2       1 RES1   0.0000
   796 C16     14.9741  39.0422   9.3454   C.2       1 RES1   0.0000
   797 C31      8.4840  40.7668  13.4742   C.2       1 RES1   0.0000
   798 C32      8.4840  39.4898  13.2780   C.2       1 RES1   0.0000
   799 C37     14.0146  40.0302  17.4014   C.2       1 RES1   0.0000
   800 C38     12.7376  40.2264  17.4014   C.2       1 RES1   0.0000
   801 C39     12.7376  40.0302   9.3508   C.2       1 RES1   0.0000
   802 C40     14.0146  40.2264   9.3508   C.2       1 RES1   0.0000
   803 H7       8.4822  41.1003  14.3427   H         1 RES1   0.0000
   804 H8       8.4822  39.1563  12.4095   H         1 RES1   0.0000
   805 H13     14.3481  39.1617  17.3996   H         1 RES1   0.0000
   806 H14     12.4041  41.0949  17.3996   H         1 RES1   0.0000
   807 H15     12.4041  39.1617   9.3526   H         1 RES1   0.0000
   808 H16     14.3481  41.0949   9.3526   H         1 RES1   0.0000
   809 C71     11.7745  44.5870  12.3167   C.2       1 RES1   0.0000
   810 C72     14.9777  44.5870  14.4355   C.2       1 RES1   0.0000
   811 C95     12.7251  44.5888  13.4956   C.2       1 RES1   0.0000
   812 C96     14.0271  44.5888  13.2566   C.2       1 RES1   0.0000
   813 H47     12.4023  44.5888  14.3677   H         1 RES1   0.0000
   814 H48     14.3499  44.5888  12.3845   H         1 RES1   0.0000
   815 O99      7.5530  46.2225  10.0713   O3        1 RES1   0.0000
   816 O101    16.6809  37.0340  10.5529   O3        1 RES1   0.0000
   817 O102    16.6809  43.2226  16.1993   O3        1 RES1   0.0000
   818 O103    10.0713  43.2226  10.5529   O3        1 RES1   0.0000
   819 O107    10.5529  45.7409   7.5530   O3        1 RES1   0.0000
   820 O111    10.2818  42.9515   7.7635   O3        1 RES1   0.0000
   821 O112    16.4704  37.3051   7.7635   O3        1 RES1   0.0000
   822 O115     7.7635  45.9514   7.2819   O3        1 RES1   0.0000
   823 O119     7.2819  43.4331  10.2818   O3        1 RES1   0.0000
   824 O155     7.5174  43.1870   7.5174   O3        1 RES1   0.0000
   825 O157    16.4348  45.9870  16.4348   O3        1 RES1   0.0000
   826 O159    10.3174  45.9870  10.3174   O3        1 RES1   0.0000
   827 Zr5     18.0467  38.1281   9.1159   Zr        1 RES1   0.0000
   828 Zr6     18.0467  42.1285  17.6363   Zr        1 RES1   0.0000
   829 Zr12    17.6363  44.3751  20.2933   Zr        1 RES1   0.0000
   830 Zr18    17.6229  47.0455  18.0333   Zr        1 RES1   0.0000
   831 Zr24    18.0333  44.7989  15.3763   Zr        1 RES1   0.0000
   832 O8       8.7747  39.3971  19.4667   Oco2      1 RES1   0.0000
   833 O85     14.1109  44.1607  19.4506   Oco2      1 RES1   0.0000
   834 O86     12.6413  36.0959  19.4506   Oco2      1 RES1   0.0000
   835 O108    16.1993  45.7409  19.1992   O3        1 RES1   0.0000
   836 O109    16.4704  42.9515  18.9887   O3        1 RES1   0.0000
   837 O110    10.2818  37.3051  18.9887   O3        1 RES1   0.0000
   838 O156    19.2348  37.0696   7.5174   O3        1 RES1   0.0000
   839 Zr3      6.4589  44.7855  26.5403   Zr        1 RES1   0.0000
   840 Zr7      8.7055  42.1285  26.9507   Zr        1 RES1   0.0000
   841 Zr11     9.1159  44.3751  24.2937   Zr        1 RES1   0.0000
   842 Zr13    15.3763  44.3885  35.4577   Zr        1 RES1   0.0000
   843 Zr15    11.3759  44.3885  26.9641   Zr        1 RES1   0.0000
   844 Zr19     9.1293  47.0455  26.5537   Zr        1 RES1   0.0000
   845 Zr23     8.7189  44.7989  29.2107   Zr        1 RES1   0.0000
   846 O7       8.7747  40.8595  25.1203   Oco2      1 RES1   0.0000
   847 O23     10.5493  44.7297  30.4797   Oco2      1 RES1   0.0000
   848 O24     16.2029  44.7297  31.9421   Oco2      1 RES1   0.0000
   849 O31      8.4787  41.1913  28.9744   Oco2      1 RES1   0.0000
   850 O32      8.4787  39.0653  33.4474   Oco2      1 RES1   0.0000
   851 O33     11.1396  36.1083  21.2305   Oco2      1 RES1   0.0000
   852 O34     15.6126  36.1083  23.3565   Oco2      1 RES1   0.0000
   853 O35     11.1396  44.1483  23.3565   Oco2      1 RES1   0.0000
   854 O36     15.6126  44.1483  21.2305   Oco2      1 RES1   0.0000
   855 O37     14.4391  42.3648  35.2309   Oco2      1 RES1   0.0000
   856 O38     12.3131  37.8918  35.2309   Oco2      1 RES1   0.0000
   857 O39     12.3131  42.3648  27.1909   Oco2      1 RES1   0.0000
   858 O40     14.4391  37.8918  27.1909   Oco2      1 RES1   0.0000
   859 O57      9.0476  37.9221  21.2163   Oco2      1 RES1   0.0000
   860 O59      9.0476  42.3345  23.3707   Oco2      1 RES1   0.0000
   861 O61     14.4533  44.4568  33.4171   Oco2      1 RES1   0.0000
   862 O63     12.2989  44.4568  29.0047   Oco2      1 RES1   0.0000
   863 O77     16.2190  39.3935  27.1785   Oco2      1 RES1   0.0000
   864 O78     16.2190  40.8631  35.2433   Oco2      1 RES1   0.0000
   865 O79     10.5332  40.8631  27.1785   Oco2      1 RES1   0.0000
   866 O80     10.5332  39.3935  35.2433   Oco2      1 RES1   0.0000
   867 O87     12.6413  44.1607  25.1364   Oco2      1 RES1   0.0000
   868 O88     14.1109  36.0959  25.1364   Oco2      1 RES1   0.0000
   869 O95      8.4911  42.9712  30.4761   Oco2      1 RES1   0.0000
   870 C7       8.4894  41.7263  30.1248   C.2       1 RES1   0.0000
   871 C8       8.4894  38.5303  32.2970   C.2       1 RES1   0.0000
   872 C9      12.2900  36.0976  20.6955   C.2       1 RES1   0.0000
   873 C10     14.4622  36.0976  23.8915   C.2       1 RES1   0.0000
   874 C11     12.2900  44.1590  23.8915   C.2       1 RES1   0.0000
   875 C12     14.4622  44.1590  20.6955   C.2       1 RES1   0.0000
   876 C13     14.9741  41.2144  35.2416   C.2       1 RES1   0.0000
   877 C14     11.7781  39.0422  35.2416   C.2       1 RES1   0.0000
   878 C15     11.7781  41.2144  27.1802   C.2       1 RES1   0.0000
   879 C16     14.9741  39.0422  27.1802   C.2       1 RES1   0.0000
   880 C31      8.4840  40.7668  31.3090   C.2       1 RES1   0.0000
   881 C32      8.4840  39.4898  31.1128   C.2       1 RES1   0.0000
   882 C33     13.4742  36.1030  21.6550   C.2       1 RES1   0.0000
   883 C34     13.2780  36.1030  22.9320   C.2       1 RES1   0.0000
   884 C35     13.4742  44.1536  22.9320   C.2       1 RES1   0.0000
   885 C36     13.2780  44.1536  21.6550   C.2       1 RES1   0.0000
   886 C37     14.0146  40.0302  35.2362   C.2       1 RES1   0.0000
   887 C38     12.7376  40.2264  35.2362   C.2       1 RES1   0.0000
   888 C39     12.7376  40.0302  27.1856   C.2       1 RES1   0.0000
   889 C40     14.0146  40.2264  27.1856   C.2       1 RES1   0.0000
   890 H7       8.4822  41.1003  32.1775   H         1 RES1   0.0000
   891 H8       8.4822  39.1563  30.2443   H         1 RES1   0.0000
   892 H9      14.3427  36.1048  21.3215   H         1 RES1   0.0000
   893 H10     12.4095  36.1048  23.2655   H         1 RES1   0.0000
   894 H11     14.3427  44.1518  23.2655   H         1 RES1   0.0000
   895 H12     12.4095  44.1518  21.3215   H         1 RES1   0.0000
   896 H13     14.3481  39.1617  35.2344   H         1 RES1   0.0000
   897 H14     12.4041  41.0949  35.2344   H         1 RES1   0.0000
   898 H15     12.4041  39.1617  27.1874   H         1 RES1   0.0000
   899 H16     14.3481  41.0949  27.1874   H         1 RES1   0.0000
   900 C55      8.9174  41.1877  23.8951   C.2       1 RES1   0.0000
   901 C56      8.9174  39.0689  20.6919   C.2       1 RES1   0.0000
   902 C71     11.7745  44.5870  30.1515   C.2       1 RES1   0.0000
   903 C72     14.9777  44.5870  32.2703   C.2       1 RES1   0.0000
   904 C79      8.9156  40.0088  22.9445   C.2       1 RES1   0.0000
   905 C80      8.9156  40.2478  21.6425   C.2       1 RES1   0.0000
   906 C95     12.7251  44.5888  31.3304   C.2       1 RES1   0.0000
   907 C96     14.0271  44.5888  31.0914   C.2       1 RES1   0.0000
   908 H31      8.9156  39.1367  23.2673   H         1 RES1   0.0000
   909 H32      8.9156  41.1199  21.3197   H         1 RES1   0.0000
   910 H47     12.4023  44.5888  32.2025   H         1 RES1   0.0000
   911 H48     14.3499  44.5888  30.2193   H         1 RES1   0.0000
   912 O99      7.5530  46.2225  27.9061   O3        1 RES1   0.0000
   913 O101    16.6809  37.0340  28.3877   O3        1 RES1   0.0000
   914 O102    16.6809  43.2226  34.0341   O3        1 RES1   0.0000
   915 O103    10.0713  43.2226  28.3877   O3        1 RES1   0.0000
   916 O107    10.5529  45.7409  25.3878   O3        1 RES1   0.0000
   917 O111    10.2818  42.9515  25.5983   O3        1 RES1   0.0000
   918 O112    16.4704  37.3051  25.5983   O3        1 RES1   0.0000
   919 O115     7.7635  45.9514  25.1167   O3        1 RES1   0.0000
   920 O119     7.2819  43.4331  28.1166   O3        1 RES1   0.0000
   921 O155     7.5174  43.1870  25.3522   O3        1 RES1   0.0000
   922 O157    16.4348  45.9870  34.2696   O3        1 RES1   0.0000
   923 O159    10.3174  45.9870  28.1522   O3        1 RES1   0.0000
   924 Zr1     20.2933  44.7855  18.0467   Zr        1 RES1   0.0000
   925 Zr5     18.0467  38.1281  26.9507   Zr        1 RES1   0.0000
   926 Zr6     18.0467  42.1285  35.4711   Zr        1 RES1   0.0000
   927 Zr12    17.6363  44.3751  38.1281   Zr        1 RES1   0.0000
   928 Zr18    17.6229  47.0455  35.8681   Zr        1 RES1   0.0000
   929 Zr24    18.0333  44.7989  33.2111   Zr        1 RES1   0.0000
   930 O8       8.7747  39.3971  37.3015   Oco2      1 RES1   0.0000
   931 O10     19.4667  35.8123  23.0247   Oco2      1 RES1   0.0000
   932 O12     19.4667  44.4443  21.5623   Oco2      1 RES1   0.0000
   933 O58     17.7046  37.9221  23.3707   Oco2      1 RES1   0.0000
   934 O60     17.7046  42.3345  21.2163   Oco2      1 RES1   0.0000
   935 O85     14.1109  44.1607  37.2854   Oco2      1 RES1   0.0000
   936 O86     12.6413  36.0959  37.2854   Oco2      1 RES1   0.0000
   937 O97     19.1992  46.2225  16.6809   O3        1 RES1   0.0000
   938 O108    16.1993  45.7409  37.0340   O3        1 RES1   0.0000
   939 O109    16.4704  42.9515  36.8235   O3        1 RES1   0.0000
   940 O110    10.2818  37.3051  36.8235   O3        1 RES1   0.0000
   941 O114    18.9887  45.9514  19.4703   O3        1 RES1   0.0000
   942 O153    19.2348  43.1870  19.2348   O3        1 RES1   0.0000
   943 O156    19.2348  37.0696  25.3522   O3        1 RES1   0.0000
   944 Zr3      6.4589  44.7855  44.3751   Zr        1 RES1   0.0000
   945 Zr7      8.7055  42.1285  44.7855   Zr        1 RES1   0.0000
   946 Zr11     9.1159  44.3751  42.1285   Zr        1 RES1   0.0000
   947 Zr15    11.3759  44.3885  44.7989   Zr        1 RES1   0.0000
   948 Zr19     9.1293  47.0455  44.3885   Zr        1 RES1   0.0000
   949 Zr23     8.7189  44.7989  47.0455   Zr        1 RES1   0.0000
   950 O7       8.7747  40.8595  42.9551   Oco2      1 RES1   0.0000
   951 O33     11.1396  36.1083  39.0653   Oco2      1 RES1   0.0000
   952 O34     15.6126  36.1083  41.1913   Oco2      1 RES1   0.0000
   953 O35     11.1396  44.1483  41.1913   Oco2      1 RES1   0.0000
   954 O36     15.6126  44.1483  39.0653   Oco2      1 RES1   0.0000
   955 O39     12.3131  42.3648  45.0257   Oco2      1 RES1   0.0000
   956 O40     14.4391  37.8918  45.0257   Oco2      1 RES1   0.0000
   957 O57      9.0476  37.9221  39.0511   Oco2      1 RES1   0.0000
   958 O59      9.0476  42.3345  41.2055   Oco2      1 RES1   0.0000
   959 O77     16.2190  39.3935  45.0133   Oco2      1 RES1   0.0000
   960 O79     10.5332  40.8631  45.0133   Oco2      1 RES1   0.0000
   961 O87     12.6413  44.1607  42.9712   Oco2      1 RES1   0.0000
   962 O88     14.1109  36.0959  42.9712   Oco2      1 RES1   0.0000
   963 C9      12.2900  36.0976  38.5303   C.2       1 RES1   0.0000
   964 C10     14.4622  36.0976  41.7263   C.2       1 RES1   0.0000
   965 C11     12.2900  44.1590  41.7263   C.2       1 RES1   0.0000
   966 C12     14.4622  44.1590  38.5303   C.2       1 RES1   0.0000
   967 C15     11.7781  41.2144  45.0150   C.2       1 RES1   0.0000
   968 C16     14.9741  39.0422  45.0150   C.2       1 RES1   0.0000
   969 C33     13.4742  36.1030  39.4898   C.2       1 RES1   0.0000
   970 C34     13.2780  36.1030  40.7668   C.2       1 RES1   0.0000
   971 C35     13.4742  44.1536  40.7668   C.2       1 RES1   0.0000
   972 C36     13.2780  44.1536  39.4898   C.2       1 RES1   0.0000
   973 C39     12.7376  40.0302  45.0204   C.2       1 RES1   0.0000
   974 C40     14.0146  40.2264  45.0204   C.2       1 RES1   0.0000
   975 H9      14.3427  36.1048  39.1563   H         1 RES1   0.0000
   976 H10     12.4095  36.1048  41.1003   H         1 RES1   0.0000
   977 H11     14.3427  44.1518  41.1003   H         1 RES1   0.0000
   978 H12     12.4095  44.1518  39.1563   H         1 RES1   0.0000
   979 H15     12.4041  39.1617  45.0222   H         1 RES1   0.0000
   980 H16     14.3481  41.0949  45.0222   H         1 RES1   0.0000
   981 C55      8.9174  41.1877  41.7299   C.2       1 RES1   0.0000
   982 C56      8.9174  39.0689  38.5267   C.2       1 RES1   0.0000
   983 C79      8.9156  40.0088  40.7793   C.2       1 RES1   0.0000
   984 C80      8.9156  40.2478  39.4773   C.2       1 RES1   0.0000
   985 H31      8.9156  39.1367  41.1021   H         1 RES1   0.0000
   986 H32      8.9156  41.1199  39.1545   H         1 RES1   0.0000
   987 O99      7.5530  46.2225  45.7409   O3        1 RES1   0.0000
   988 O101    16.6809  37.0340  46.2225   O3        1 RES1   0.0000
   989 O103    10.0713  43.2226  46.2225   O3        1 RES1   0.0000
   990 O107    10.5529  45.7409  43.2226   O3        1 RES1   0.0000
   991 O111    10.2818  42.9515  43.4331   O3        1 RES1   0.0000
   992 O112    16.4704  37.3051  43.4331   O3        1 RES1   0.0000
   993 O115     7.7635  45.9514  42.9515   O3        1 RES1   0.0000
   994 O119     7.2819  43.4331  45.9514   O3        1 RES1   0.0000
   995 O155     7.5174  43.1870  43.1870   O3        1 RES1   0.0000
   996 O159    10.3174  45.9870  45.9870   O3        1 RES1   0.0000
   997 Zr1     20.2933  44.7855  35.8815   Zr        1 RES1   0.0000
   998 Zr5     18.0467  38.1281  44.7855   Zr        1 RES1   0.0000
   999 O10     19.4667  35.8123  40.8595   Oco2      1 RES1   0.0000
  1000 O12     19.4667  44.4443  39.3971   Oco2      1 RES1   0.0000
  1001 O58     17.7046  37.9221  41.2055   Oco2      1 RES1   0.0000
  1002 O60     17.7046  42.3345  39.0511   Oco2      1 RES1   0.0000
  1003 O97     19.1992  46.2225  34.5157   O3        1 RES1   0.0000
  1004 O114    18.9887  45.9514  37.3051   O3        1 RES1   0.0000
  1005 O153    19.2348  43.1870  37.0696   O3        1 RES1   0.0000
  1006 O156    19.2348  37.0696  43.1870   O3        1 RES1   0.0000
  1007 Zr3     24.2937   9.1159   8.7055   Zr        1 RES1   0.0000
  1008 Zr7     26.5403   6.4589   9.1159   Zr        1 RES1   0.0000
  1009 Zr11    26.9507   8.7055   6.4589   Zr        1 RES1   0.0000
  1010 Zr13    33.2111   8.7189  17.6229   Zr        1 RES1   0.0000
  1011 Zr15    29.2107   8.7189   9.1293   Zr        1 RES1   0.0000
  1012 Zr17    35.4577  15.3763   8.7189   Zr        1 RES1   0.0000
  1013 Zr19    26.9641  11.3759   8.7189   Zr        1 RES1   0.0000
  1014 Zr21    26.5537  17.6229  15.3763   Zr        1 RES1   0.0000
  1015 Zr23    26.5537   9.1293  11.3759   Zr        1 RES1   0.0000
  1016 O13     31.9421  10.5493  17.6921   Oco2      1 RES1   0.0000
  1017 O14     30.4797  16.2029  17.6921   Oco2      1 RES1   0.0000
  1018 O15     30.4797  10.5493   9.0601   Oco2      1 RES1   0.0000
  1019 O16     31.9421  16.2029   9.0601   Oco2      1 RES1   0.0000
  1020 O17     35.5269  14.1073  10.5493   Oco2      1 RES1   0.0000
  1021 O18     35.5269  12.6449  16.2029   Oco2      1 RES1   0.0000
  1022 O19     26.8949  12.6449  10.5493   Oco2      1 RES1   0.0000
  1023 O20     26.8949  14.1073  16.2029   Oco2      1 RES1   0.0000
  1024 O21     28.3841  17.6921  14.1073   Oco2      1 RES1   0.0000
  1025 O22     34.0377  17.6921  12.6449   Oco2      1 RES1   0.0000
  1026 O23     28.3841   9.0601  12.6449   Oco2      1 RES1   0.0000
  1027 O24     34.0377   9.0601  14.1073   Oco2      1 RES1   0.0000
  1028 O27     23.3565  11.1396   8.4787   Oco2      1 RES1   0.0000
  1029 O28     21.2305  15.6126   8.4787   Oco2      1 RES1   0.0000
  1030 O45     24.5300  17.3961  14.4391   Oco2      1 RES1   0.0000
  1031 O46     20.0570  17.3961  12.3131   Oco2      1 RES1   0.0000
  1032 O47     24.5300   9.3561  12.3131   Oco2      1 RES1   0.0000
  1033 O48     20.0570   9.3561  14.4391   Oco2      1 RES1   0.0000
  1034 O61     32.2881   8.7872  15.5823   Oco2      1 RES1   0.0000
  1035 O62     30.1337  17.9650  15.5823   Oco2      1 RES1   0.0000
  1036 O63     30.1337   8.7872  11.1699   Oco2      1 RES1   0.0000
  1037 O64     32.2881  17.9650  11.1699   Oco2      1 RES1   0.0000
  1038 O65     33.4171  14.4533   8.7872   Oco2      1 RES1   0.0000
  1039 O66     33.4171  12.2989  17.9650   Oco2      1 RES1   0.0000
  1040 O67     29.0047  12.2989   8.7872   Oco2      1 RES1   0.0000
  1041 O68     29.0047  14.4533  17.9650   Oco2      1 RES1   0.0000
  1042 O69     26.6220  15.5823  14.4533   Oco2      1 RES1   0.0000
  1043 O70     35.7998  15.5823  12.2989   Oco2      1 RES1   0.0000
  1044 O71     26.6220  11.1699  12.2989   Oco2      1 RES1   0.0000
  1045 O72     35.7998  11.1699  14.4533   Oco2      1 RES1   0.0000
  1046 O73     21.5587   9.3437  16.2190   Oco2      1 RES1   0.0000
  1047 O74     23.0283  17.4085  16.2190   Oco2      1 RES1   0.0000
  1048 O75     23.0283   9.3437  10.5332   Oco2      1 RES1   0.0000
  1049 O76     21.5587  17.4085  10.5332   Oco2      1 RES1   0.0000
  1050 O91     25.1364  12.6413   8.4911   Oco2      1 RES1   0.0000
  1051 C3      23.8915  12.2900   8.4894   C.2       1 RES1   0.0000
  1052 C4      20.6955  14.4622   8.4894   C.2       1 RES1   0.0000
  1053 C21     23.3796  17.4068  14.9741   C.2       1 RES1   0.0000
  1054 C22     21.2074  17.4068  11.7781   C.2       1 RES1   0.0000
  1055 C23     23.3796   9.3454  11.7781   C.2       1 RES1   0.0000
  1056 C24     21.2074   9.3454  14.9741   C.2       1 RES1   0.0000
  1057 C27     22.9320  13.4742   8.4840   C.2       1 RES1   0.0000
  1058 C28     21.6550  13.2780   8.4840   C.2       1 RES1   0.0000
  1059 C45     22.1954  17.4014  14.0146   C.2       1 RES1   0.0000
  1060 C46     22.3916  17.4014  12.7376   C.2       1 RES1   0.0000
  1061 C47     22.1954   9.3508  12.7376   C.2       1 RES1   0.0000
  1062 C48     22.3916   9.3508  14.0146   C.2       1 RES1   0.0000
  1063 H3      23.2655  14.3427   8.4822   H         1 RES1   0.0000
  1064 H4      21.3215  12.4095   8.4822   H         1 RES1   0.0000
  1065 H21     21.3269  17.3996  14.3481   H         1 RES1   0.0000
  1066 H22     23.2601  17.3996  12.4041   H         1 RES1   0.0000
  1067 H23     21.3269   9.3526  12.4041   H         1 RES1   0.0000
  1068 H24     23.2601   9.3526  14.3481   H         1 RES1   0.0000
  1069 C61     32.2703  11.7745  17.8348   C.2       1 RES1   0.0000
  1070 C62     30.1515  14.9777  17.8348   C.2       1 RES1   0.0000
  1071 C63     30.1515  11.7745   8.9174   C.2       1 RES1   0.0000
  1072 C64     32.2703  14.9777   8.9174   C.2       1 RES1   0.0000
  1073 C65     35.6696  14.4355  11.7745   C.2       1 RES1   0.0000
  1074 C66     35.6696  12.3167  14.9777   C.2       1 RES1   0.0000
  1075 C67     26.7522  12.3167  11.7745   C.2       1 RES1   0.0000
  1076 C68     26.7522  14.4355  14.9777   C.2       1 RES1   0.0000
  1077 C69     29.6093  17.8348  14.4355   C.2       1 RES1   0.0000
  1078 C70     32.8125  17.8348  12.3167   C.2       1 RES1   0.0000
  1079 C71     29.6093   8.9174  12.3167   C.2       1 RES1   0.0000
  1080 C72     32.8125   8.9174  14.4355   C.2       1 RES1   0.0000
  1081 C85     31.0914  12.7251  17.8330   C.2       1 RES1   0.0000
  1082 C86     31.3304  14.0271  17.8330   C.2       1 RES1   0.0000
  1083 C87     31.3304  12.7251   8.9192   C.2       1 RES1   0.0000
  1084 C88     31.0914  14.0271   8.9192   C.2       1 RES1   0.0000
  1085 C89     35.6678  13.2566  12.7251   C.2       1 RES1   0.0000
  1086 C90     35.6678  13.4956  14.0271   C.2       1 RES1   0.0000
  1087 C91     26.7540  13.4956  12.7251   C.2       1 RES1   0.0000
  1088 C92     26.7540  13.2566  14.0271   C.2       1 RES1   0.0000
  1089 C93     30.5599  17.8330  13.2566   C.2       1 RES1   0.0000
  1090 C94     31.8619  17.8330  13.4956   C.2       1 RES1   0.0000
  1091 C95     30.5599   8.9192  13.4956   C.2       1 RES1   0.0000
  1092 C96     31.8619   8.9192  13.2566   C.2       1 RES1   0.0000
  1093 H37     30.2193  12.4023  17.8330   H         1 RES1   0.0000
  1094 H38     32.2025  14.3499  17.8330   H         1 RES1   0.0000
  1095 H39     32.2025  12.4023   8.9192   H         1 RES1   0.0000
  1096 H40     30.2193  14.3499   8.9192   H         1 RES1   0.0000
  1097 H41     35.6678  12.3845  12.4023   H         1 RES1   0.0000
  1098 H42     35.6678  14.3677  14.3499   H         1 RES1   0.0000
  1099 H43     26.7540  14.3677  12.4023   H         1 RES1   0.0000
  1100 H44     26.7540  12.3845  14.3499   H         1 RES1   0.0000
  1101 H45     30.2371  17.8330  12.3845   H         1 RES1   0.0000
  1102 H46     32.1847  17.8330  14.3677   H         1 RES1   0.0000
  1103 H47     30.2371   8.9192  14.3677   H         1 RES1   0.0000
  1104 H48     32.1847   8.9192  12.3845   H         1 RES1   0.0000
  1105 O98     25.3878  16.1993  16.6809   O3        1 RES1   0.0000
  1106 O99     25.3878  10.5529  10.0713   O3        1 RES1   0.0000
  1107 O102    34.5157   7.5530  16.1993   O3        1 RES1   0.0000
  1108 O103    27.9061   7.5530  10.5529   O3        1 RES1   0.0000
  1109 O106    34.0341  16.6809   7.5530   O3        1 RES1   0.0000
  1110 O107    28.3877  10.0713   7.5530   O3        1 RES1   0.0000
  1111 O111    28.1166   7.2819   7.7635   O3        1 RES1   0.0000
  1112 O115    25.5983  10.2818   7.2819   O3        1 RES1   0.0000
  1113 O119    25.1167   7.7635  10.2818   O3        1 RES1   0.0000
  1114 O155    25.3522   7.5174   7.5174   O3        1 RES1   0.0000
  1115 O157    34.2696  10.3174  16.4348   O3        1 RES1   0.0000
  1116 O158    28.1522  16.4348  16.4348   O3        1 RES1   0.0000
  1117 O159    28.1522  10.3174  10.3174   O3        1 RES1   0.0000
  1118 O160    34.2696  16.4348  10.3174   O3        1 RES1   0.0000
  1119 Zr2     24.2937  17.6363  18.0467   Zr        1 RES1   0.0000
  1120 Zr4     38.1281  17.6363   8.7055   Zr        1 RES1   0.0000
  1121 Zr6     35.8815   6.4589  17.6363   Zr        1 RES1   0.0000
  1122 Zr8     26.5403  20.2933  17.6363   Zr        1 RES1   0.0000
  1123 Zr10    35.4711  18.0467   6.4589   Zr        1 RES1   0.0000
  1124 Zr12    35.4711   8.7055  20.2933   Zr        1 RES1   0.0000
  1125 Zr14    29.2107  18.0333  17.6229   Zr        1 RES1   0.0000
  1126 Zr16    33.2111  18.0333   9.1293   Zr        1 RES1   0.0000
  1127 Zr18    35.4577  11.3759  18.0333   Zr        1 RES1   0.0000
  1128 Zr20    26.9641  15.3763  18.0333   Zr        1 RES1   0.0000
  1129 Zr22    35.8681  17.6229  11.3759   Zr        1 RES1   0.0000
  1130 Zr24    35.8681   9.1293  15.3763   Zr        1 RES1   0.0000
  1131 O4      21.5623  19.4667   8.7747   Oco2      1 RES1   0.0000
  1132 O85     31.9457   8.4911  19.4506   Oco2      1 RES1   0.0000
  1133 O89     37.2854  14.1109   8.4911   Oco2      1 RES1   0.0000
  1134 O93     26.3259  19.4506  14.1109   Oco2      1 RES1   0.0000
  1135 O94     18.2611  19.4506  12.6413   Oco2      1 RES1   0.0000
  1136 O100    37.0340  16.1993  10.0713   O3        1 RES1   0.0000
  1137 O104    27.9061  19.1992  16.1993   O3        1 RES1   0.0000
  1138 O108    34.0341  10.0713  19.1992   O3        1 RES1   0.0000
  1139 O109    34.3052   7.2819  18.9887   O3        1 RES1   0.0000
  1140 O113    36.8235  16.4704   7.2819   O3        1 RES1   0.0000
  1141 O117    25.1167  18.9887  16.4704   O3        1 RES1   0.0000
  1142 O118    19.4703  18.9887  10.2818   O3        1 RES1   0.0000
  1143 Zr3     24.2937   9.1159  26.5403   Zr        1 RES1   0.0000
  1144 Zr7     26.5403   6.4589  26.9507   Zr        1 RES1   0.0000
  1145 Zr11    26.9507   8.7055  24.2937   Zr        1 RES1   0.0000
  1146 Zr13    33.2111   8.7189  35.4577   Zr        1 RES1   0.0000
  1147 Zr15    29.2107   8.7189  26.9641   Zr        1 RES1   0.0000
  1148 Zr17    35.4577  15.3763  26.5537   Zr        1 RES1   0.0000
  1149 Zr19    26.9641  11.3759  26.5537   Zr        1 RES1   0.0000
  1150 Zr21    26.5537  17.6229  33.2111   Zr        1 RES1   0.0000
  1151 Zr23    26.5537   9.1293  29.2107   Zr        1 RES1   0.0000
  1152 O11     25.1203   8.7747  23.0247   Oco2      1 RES1   0.0000
  1153 O13     31.9421  10.5493  35.5269   Oco2      1 RES1   0.0000
  1154 O14     30.4797  16.2029  35.5269   Oco2      1 RES1   0.0000
  1155 O15     30.4797  10.5493  26.8949   Oco2      1 RES1   0.0000
  1156 O16     31.9421  16.2029  26.8949   Oco2      1 RES1   0.0000
  1157 O17     35.5269  14.1073  28.3841   Oco2      1 RES1   0.0000
  1158 O18     35.5269  12.6449  34.0377   Oco2      1 RES1   0.0000
  1159 O19     26.8949  12.6449  28.3841   Oco2      1 RES1   0.0000
  1160 O20     26.8949  14.1073  34.0377   Oco2      1 RES1   0.0000
  1161 O21     28.3841  17.6921  31.9421   Oco2      1 RES1   0.0000
  1162 O22     34.0377  17.6921  30.4797   Oco2      1 RES1   0.0000
  1163 O23     28.3841   9.0601  30.4797   Oco2      1 RES1   0.0000
  1164 O24     34.0377   9.0601  31.9421   Oco2      1 RES1   0.0000
  1165 O25     21.2305  11.1396  18.2735   Oco2      1 RES1   0.0000
  1166 O26     23.3565  15.6126  18.2735   Oco2      1 RES1   0.0000
  1167 O27     23.3565  11.1396  26.3135   Oco2      1 RES1   0.0000
  1168 O28     21.2305  15.6126  26.3135   Oco2      1 RES1   0.0000
  1169 O35     28.9744   8.4787  23.3565   Oco2      1 RES1   0.0000
  1170 O36     33.4474   8.4787  21.2305   Oco2      1 RES1   0.0000
  1171 O41     35.2309  14.4391  24.5300   Oco2      1 RES1   0.0000
  1172 O42     35.2309  12.3131  20.0570   Oco2      1 RES1   0.0000
  1173 O43     27.1909  12.3131  24.5300   Oco2      1 RES1   0.0000
  1174 O44     27.1909  14.4391  20.0570   Oco2      1 RES1   0.0000
  1175 O45     24.5300  17.3961  32.2739   Oco2      1 RES1   0.0000
  1176 O46     20.0570  17.3961  30.1479   Oco2      1 RES1   0.0000
  1177 O47     24.5300   9.3561  30.1479   Oco2      1 RES1   0.0000
  1178 O48     20.0570   9.3561  32.2739   Oco2      1 RES1   0.0000
  1179 O49     21.2163   9.0476  20.0873   Oco2      1 RES1   0.0000
  1180 O51     23.3707   9.0476  24.4997   Oco2      1 RES1   0.0000
  1181 O61     32.2881   8.7872  33.4171   Oco2      1 RES1   0.0000
  1182 O62     30.1337  17.9650  33.4171   Oco2      1 RES1   0.0000
  1183 O63     30.1337   8.7872  29.0047   Oco2      1 RES1   0.0000
  1184 O64     32.2881  17.9650  29.0047   Oco2      1 RES1   0.0000
  1185 O65     33.4171  14.4533  26.6220   Oco2      1 RES1   0.0000
  1186 O66     33.4171  12.2989  35.7998   Oco2      1 RES1   0.0000
  1187 O67     29.0047  12.2989  26.6220   Oco2      1 RES1   0.0000
  1188 O68     29.0047  14.4533  35.7998   Oco2      1 RES1   0.0000
  1189 O69     26.6220  15.5823  32.2881   Oco2      1 RES1   0.0000
  1190 O70     35.7998  15.5823  30.1337   Oco2      1 RES1   0.0000
  1191 O71     26.6220  11.1699  30.1337   Oco2      1 RES1   0.0000
  1192 O72     35.7998  11.1699  32.2881   Oco2      1 RES1   0.0000
  1193 O73     21.5587   9.3437  34.0538   Oco2      1 RES1   0.0000
  1194 O74     23.0283  17.4085  34.0538   Oco2      1 RES1   0.0000
  1195 O75     23.0283   9.3437  28.3680   Oco2      1 RES1   0.0000
  1196 O76     21.5587  17.4085  28.3680   Oco2      1 RES1   0.0000
  1197 O81     27.1785  16.2190  21.5587   Oco2      1 RES1   0.0000
  1198 O82     35.2433  16.2190  23.0283   Oco2      1 RES1   0.0000
  1199 O83     27.1785  10.5332  23.0283   Oco2      1 RES1   0.0000
  1200 O84     35.2433  10.5332  21.5587   Oco2      1 RES1   0.0000
  1201 O87     30.4761   8.4911  25.1364   Oco2      1 RES1   0.0000
  1202 O91     25.1364  12.6413  26.3259   Oco2      1 RES1   0.0000
  1203 O92     25.1364  14.1109  18.2611   Oco2      1 RES1   0.0000
  1204 C1      20.6955  12.2900  18.2628   C.2       1 RES1   0.0000
  1205 C2      23.8915  14.4622  18.2628   C.2       1 RES1   0.0000
  1206 C3      23.8915  12.2900  26.3242   C.2       1 RES1   0.0000
  1207 C4      20.6955  14.4622  26.3242   C.2       1 RES1   0.0000
  1208 C11     30.1248   8.4894  23.8915   C.2       1 RES1   0.0000
  1209 C12     32.2970   8.4894  20.6955   C.2       1 RES1   0.0000
  1210 C17     35.2416  14.9741  23.3796   C.2       1 RES1   0.0000
  1211 C18     35.2416  11.7781  21.2074   C.2       1 RES1   0.0000
  1212 C19     27.1802  11.7781  23.3796   C.2       1 RES1   0.0000
  1213 C20     27.1802  14.9741  21.2074   C.2       1 RES1   0.0000
  1214 C21     23.3796  17.4068  32.8089   C.2       1 RES1   0.0000
  1215 C22     21.2074  17.4068  29.6129   C.2       1 RES1   0.0000
  1216 C23     23.3796   9.3454  29.6129   C.2       1 RES1   0.0000
  1217 C24     21.2074   9.3454  32.8089   C.2       1 RES1   0.0000
  1218 C25     21.6550  13.4742  18.2682   C.2       1 RES1   0.0000
  1219 C26     22.9320  13.2780  18.2682   C.2       1 RES1   0.0000
  1220 C27     22.9320  13.4742  26.3188   C.2       1 RES1   0.0000
  1221 C28     21.6550  13.2780  26.3188   C.2       1 RES1   0.0000
  1222 C35     31.3090   8.4840  22.9320   C.2       1 RES1   0.0000
  1223 C36     31.1128   8.4840  21.6550   C.2       1 RES1   0.0000
  1224 C41     35.2362  14.0146  22.1954   C.2       1 RES1   0.0000
  1225 C42     35.2362  12.7376  22.3916   C.2       1 RES1   0.0000
  1226 C43     27.1856  12.7376  22.1954   C.2       1 RES1   0.0000
  1227 C44     27.1856  14.0146  22.3916   C.2       1 RES1   0.0000
  1228 C45     22.1954  17.4014  31.8494   C.2       1 RES1   0.0000
  1229 C46     22.3916  17.4014  30.5724   C.2       1 RES1   0.0000
  1230 C47     22.1954   9.3508  30.5724   C.2       1 RES1   0.0000
  1231 C48     22.3916   9.3508  31.8494   C.2       1 RES1   0.0000
  1232 H1      21.3215  14.3427  18.2700   H         1 RES1   0.0000
  1233 H2      23.2655  12.4095  18.2700   H         1 RES1   0.0000
  1234 H3      23.2655  14.3427  26.3170   H         1 RES1   0.0000
  1235 H4      21.3215  12.4095  26.3170   H         1 RES1   0.0000
  1236 H11     32.1775   8.4822  23.2655   H         1 RES1   0.0000
  1237 H12     30.2443   8.4822  21.3215   H         1 RES1   0.0000
  1238 H17     35.2344  14.3481  21.3269   H         1 RES1   0.0000
  1239 H18     35.2344  12.4041  23.2601   H         1 RES1   0.0000
  1240 H19     27.1874  12.4041  21.3269   H         1 RES1   0.0000
  1241 H20     27.1874  14.3481  23.2601   H         1 RES1   0.0000
  1242 H21     21.3269  17.3996  32.1829   H         1 RES1   0.0000
  1243 H22     23.2601  17.3996  30.2389   H         1 RES1   0.0000
  1244 H23     21.3269   9.3526  30.2389   H         1 RES1   0.0000
  1245 H24     23.2601   9.3526  32.1829   H         1 RES1   0.0000
  1246 C59     23.8951   8.9174  23.3529   C.2       1 RES1   0.0000
  1247 C60     20.6919   8.9174  21.2341   C.2       1 RES1   0.0000
  1248 C61     32.2703  11.7745  35.6696   C.2       1 RES1   0.0000
  1249 C62     30.1515  14.9777  35.6696   C.2       1 RES1   0.0000
  1250 C63     30.1515  11.7745  26.7522   C.2       1 RES1   0.0000
  1251 C64     32.2703  14.9777  26.7522   C.2       1 RES1   0.0000
  1252 C65     35.6696  14.4355  29.6093   C.2       1 RES1   0.0000
  1253 C66     35.6696  12.3167  32.8125   C.2       1 RES1   0.0000
  1254 C67     26.7522  12.3167  29.6093   C.2       1 RES1   0.0000
  1255 C68     26.7522  14.4355  32.8125   C.2       1 RES1   0.0000
  1256 C69     29.6093  17.8348  32.2703   C.2       1 RES1   0.0000
  1257 C70     32.8125  17.8348  30.1515   C.2       1 RES1   0.0000
  1258 C71     29.6093   8.9174  30.1515   C.2       1 RES1   0.0000
  1259 C72     32.8125   8.9174  32.2703   C.2       1 RES1   0.0000
  1260 C83     22.9445   8.9156  22.1740   C.2       1 RES1   0.0000
  1261 C84     21.6425   8.9156  22.4130   C.2       1 RES1   0.0000
  1262 C85     31.0914  12.7251  35.6678   C.2       1 RES1   0.0000
  1263 C86     31.3304  14.0271  35.6678   C.2       1 RES1   0.0000
  1264 C87     31.3304  12.7251  26.7540   C.2       1 RES1   0.0000
  1265 C88     31.0914  14.0271  26.7540   C.2       1 RES1   0.0000
  1266 C89     35.6678  13.2566  30.5599   C.2       1 RES1   0.0000
  1267 C90     35.6678  13.4956  31.8619   C.2       1 RES1   0.0000
  1268 C91     26.7540  13.4956  30.5599   C.2       1 RES1   0.0000
  1269 C92     26.7540  13.2566  31.8619   C.2       1 RES1   0.0000
  1270 C93     30.5599  17.8330  31.0914   C.2       1 RES1   0.0000
  1271 C94     31.8619  17.8330  31.3304   C.2       1 RES1   0.0000
  1272 C95     30.5599   8.9192  31.3304   C.2       1 RES1   0.0000
  1273 C96     31.8619   8.9192  31.0914   C.2       1 RES1   0.0000
  1274 H35     23.2673   8.9156  21.3019   H         1 RES1   0.0000
  1275 H36     21.3197   8.9156  23.2851   H         1 RES1   0.0000
  1276 H37     30.2193  12.4023  35.6678   H         1 RES1   0.0000
  1277 H38     32.2025  14.3499  35.6678   H         1 RES1   0.0000
  1278 H39     32.2025  12.4023  26.7540   H         1 RES1   0.0000
  1279 H40     30.2193  14.3499  26.7540   H         1 RES1   0.0000
  1280 H41     35.6678  12.3845  30.2371   H         1 RES1   0.0000
  1281 H42     35.6678  14.3677  32.1847   H         1 RES1   0.0000
  1282 H43     26.7540  14.3677  30.2371   H         1 RES1   0.0000
  1283 H44     26.7540  12.3845  32.1847   H         1 RES1   0.0000
  1284 H45     30.2371  17.8330  30.2193   H         1 RES1   0.0000
  1285 H46     32.1847  17.8330  32.2025   H         1 RES1   0.0000
  1286 H47     30.2371   8.9192  32.2025   H         1 RES1   0.0000
  1287 H48     32.1847   8.9192  30.2193   H         1 RES1   0.0000
  1288 O98     25.3878  16.1993  34.5157   O3        1 RES1   0.0000
  1289 O99     25.3878  10.5529  27.9061   O3        1 RES1   0.0000
  1290 O102    34.5157   7.5530  34.0341   O3        1 RES1   0.0000
  1291 O103    27.9061   7.5530  28.3877   O3        1 RES1   0.0000
  1292 O105    28.3877  16.6809  19.1992   O3        1 RES1   0.0000
  1293 O106    34.0341  16.6809  25.3878   O3        1 RES1   0.0000
  1294 O107    28.3877  10.0713  25.3878   O3        1 RES1   0.0000
  1295 O111    28.1166   7.2819  25.5983   O3        1 RES1   0.0000
  1296 O115    25.5983  10.2818  25.1167   O3        1 RES1   0.0000
  1297 O116    25.5983  16.4704  19.4703   O3        1 RES1   0.0000
  1298 O119    25.1167   7.7635  28.1166   O3        1 RES1   0.0000
  1299 O155    25.3522   7.5174  25.3522   O3        1 RES1   0.0000
  1300 O157    34.2696  10.3174  34.2696   O3        1 RES1   0.0000
  1301 O158    28.1522  16.4348  34.2696   O3        1 RES1   0.0000
  1302 O159    28.1522  10.3174  28.1522   O3        1 RES1   0.0000
  1303 O160    34.2696  16.4348  28.1522   O3        1 RES1   0.0000
  1304 Zr1     38.1281   9.1159  18.0467   Zr        1 RES1   0.0000
  1305 Zr2     24.2937  17.6363  35.8815   Zr        1 RES1   0.0000
  1306 Zr4     38.1281  17.6363  26.5403   Zr        1 RES1   0.0000
  1307 Zr6     35.8815   6.4589  35.4711   Zr        1 RES1   0.0000
  1308 Zr8     26.5403  20.2933  35.4711   Zr        1 RES1   0.0000
  1309 Zr9     26.9507  18.0467  20.2933   Zr        1 RES1   0.0000
  1310 Zr10    35.4711  18.0467  24.2937   Zr        1 RES1   0.0000
  1311 Zr12    35.4711   8.7055  38.1281   Zr        1 RES1   0.0000
  1312 Zr14    29.2107  18.0333  35.4577   Zr        1 RES1   0.0000
  1313 Zr16    33.2111  18.0333  26.9641   Zr        1 RES1   0.0000
  1314 Zr18    35.4577  11.3759  35.8681   Zr        1 RES1   0.0000
  1315 Zr20    26.9641  15.3763  35.8681   Zr        1 RES1   0.0000
  1316 Zr22    35.8681  17.6229  29.2107   Zr        1 RES1   0.0000
  1317 Zr24    35.8681   9.1293  33.2111   Zr        1 RES1   0.0000
  1318 O2      23.0247  19.4667  17.9775   Oco2      1 RES1   0.0000
  1319 O4      21.5623  19.4667  26.6095   Oco2      1 RES1   0.0000
  1320 O12     37.3015   8.7747  21.5623   Oco2      1 RES1   0.0000
  1321 O50     23.3707  17.7046  20.0873   Oco2      1 RES1   0.0000
  1322 O52     21.2163  17.7046  24.4997   Oco2      1 RES1   0.0000
  1323 O85     31.9457   8.4911  37.2854   Oco2      1 RES1   0.0000
  1324 O89     37.2854  14.1109  26.3259   Oco2      1 RES1   0.0000
  1325 O90     37.2854  12.6413  18.2611   Oco2      1 RES1   0.0000
  1326 O93     26.3259  19.4506  31.9457   Oco2      1 RES1   0.0000
  1327 O94     18.2611  19.4506  30.4761   Oco2      1 RES1   0.0000
  1328 O97     37.0340  10.5529  16.6809   O3        1 RES1   0.0000
  1329 O100    37.0340  16.1993  27.9061   O3        1 RES1   0.0000
  1330 O104    27.9061  19.1992  34.0341   O3        1 RES1   0.0000
  1331 O108    34.0341  10.0713  37.0340   O3        1 RES1   0.0000
  1332 O109    34.3052   7.2819  36.8235   O3        1 RES1   0.0000
  1333 O113    36.8235  16.4704  25.1167   O3        1 RES1   0.0000
  1334 O114    36.8235  10.2818  19.4703   O3        1 RES1   0.0000
  1335 O117    25.1167  18.9887  34.3052   O3        1 RES1   0.0000
  1336 O118    19.4703  18.9887  28.1166   O3        1 RES1   0.0000
  1337 O120    19.4703   7.7635  16.4704   O3        1 RES1   0.0000
  1338 O153    37.0696   7.5174  19.2348   O3        1 RES1   0.0000
  1339 O154    25.3522  19.2348  19.2348   O3        1 RES1   0.0000
  1340 Zr3     24.2937   9.1159  44.3751   Zr        1 RES1   0.0000
  1341 Zr7     26.5403   6.4589  44.7855   Zr        1 RES1   0.0000
  1342 Zr11    26.9507   8.7055  42.1285   Zr        1 RES1   0.0000
  1343 Zr15    29.2107   8.7189  44.7989   Zr        1 RES1   0.0000
  1344 Zr17    35.4577  15.3763  44.3885   Zr        1 RES1   0.0000
  1345 Zr19    26.9641  11.3759  44.3885   Zr        1 RES1   0.0000
  1346 Zr23    26.5537   9.1293  47.0455   Zr        1 RES1   0.0000
  1347 O11     25.1203   8.7747  40.8595   Oco2      1 RES1   0.0000
  1348 O15     30.4797  10.5493  44.7297   Oco2      1 RES1   0.0000
  1349 O16     31.9421  16.2029  44.7297   Oco2      1 RES1   0.0000
  1350 O25     21.2305  11.1396  36.1083   Oco2      1 RES1   0.0000
  1351 O26     23.3565  15.6126  36.1083   Oco2      1 RES1   0.0000
  1352 O27     23.3565  11.1396  44.1483   Oco2      1 RES1   0.0000
  1353 O28     21.2305  15.6126  44.1483   Oco2      1 RES1   0.0000
  1354 O35     28.9744   8.4787  41.1913   Oco2      1 RES1   0.0000
  1355 O36     33.4474   8.4787  39.0653   Oco2      1 RES1   0.0000
  1356 O41     35.2309  14.4391  42.3648   Oco2      1 RES1   0.0000
  1357 O42     35.2309  12.3131  37.8918   Oco2      1 RES1   0.0000
  1358 O43     27.1909  12.3131  42.3648   Oco2      1 RES1   0.0000
  1359 O44     27.1909  14.4391  37.8918   Oco2      1 RES1   0.0000
  1360 O49     21.2163   9.0476  37.9221   Oco2      1 RES1   0.0000
  1361 O51     23.3707   9.0476  42.3345   Oco2      1 RES1   0.0000
  1362 O65     33.4171  14.4533  44.4568   Oco2      1 RES1   0.0000
  1363 O67     29.0047  12.2989  44.4568   Oco2      1 RES1   0.0000
  1364 O81     27.1785  16.2190  39.3935   Oco2      1 RES1   0.0000
  1365 O82     35.2433  16.2190  40.8631   Oco2      1 RES1   0.0000
  1366 O83     27.1785  10.5332  40.8631   Oco2      1 RES1   0.0000
  1367 O84     35.2433  10.5332  39.3935   Oco2      1 RES1   0.0000
  1368 O87     30.4761   8.4911  42.9712   Oco2      1 RES1   0.0000
  1369 O91     25.1364  12.6413  44.1607   Oco2      1 RES1   0.0000
  1370 O92     25.1364  14.1109  36.0959   Oco2      1 RES1   0.0000
  1371 C1      20.6955  12.2900  36.0976   C.2       1 RES1   0.0000
  1372 C2      23.8915  14.4622  36.0976   C.2       1 RES1   0.0000
  1373 C3      23.8915  12.2900  44.1590   C.2       1 RES1   0.0000
  1374 C4      20.6955  14.4622  44.1590   C.2       1 RES1   0.0000
  1375 C11     30.1248   8.4894  41.7263   C.2       1 RES1   0.0000
  1376 C12     32.2970   8.4894  38.5303   C.2       1 RES1   0.0000
  1377 C17     35.2416  14.9741  41.2144   C.2       1 RES1   0.0000
  1378 C18     35.2416  11.7781  39.0422   C.2       1 RES1   0.0000
  1379 C19     27.1802  11.7781  41.2144   C.2       1 RES1   0.0000
  1380 C20     27.1802  14.9741  39.0422   C.2       1 RES1   0.0000
  1381 C25     21.6550  13.4742  36.1030   C.2       1 RES1   0.0000
  1382 C26     22.9320  13.2780  36.1030   C.2       1 RES1   0.0000
  1383 C27     22.9320  13.4742  44.1536   C.2       1 RES1   0.0000
  1384 C28     21.6550  13.2780  44.1536   C.2       1 RES1   0.0000
  1385 C35     31.3090   8.4840  40.7668   C.2       1 RES1   0.0000
  1386 C36     31.1128   8.4840  39.4898   C.2       1 RES1   0.0000
  1387 C41     35.2362  14.0146  40.0302   C.2       1 RES1   0.0000
  1388 C42     35.2362  12.7376  40.2264   C.2       1 RES1   0.0000
  1389 C43     27.1856  12.7376  40.0302   C.2       1 RES1   0.0000
  1390 C44     27.1856  14.0146  40.2264   C.2       1 RES1   0.0000
  1391 H1      21.3215  14.3427  36.1048   H         1 RES1   0.0000
  1392 H2      23.2655  12.4095  36.1048   H         1 RES1   0.0000
  1393 H3      23.2655  14.3427  44.1518   H         1 RES1   0.0000
  1394 H4      21.3215  12.4095  44.1518   H         1 RES1   0.0000
  1395 H11     32.1775   8.4822  41.1003   H         1 RES1   0.0000
  1396 H12     30.2443   8.4822  39.1563   H         1 RES1   0.0000
  1397 H17     35.2344  14.3481  39.1617   H         1 RES1   0.0000
  1398 H18     35.2344  12.4041  41.0949   H         1 RES1   0.0000
  1399 H19     27.1874  12.4041  39.1617   H         1 RES1   0.0000
  1400 H20     27.1874  14.3481  41.0949   H         1 RES1   0.0000
  1401 C59     23.8951   8.9174  41.1877   C.2       1 RES1   0.0000
  1402 C60     20.6919   8.9174  39.0689   C.2       1 RES1   0.0000
  1403 C63     30.1515  11.7745  44.5870   C.2       1 RES1   0.0000
  1404 C64     32.2703  14.9777  44.5870   C.2       1 RES1   0.0000
  1405 C83     22.9445   8.9156  40.0088   C.2       1 RES1   0.0000
  1406 C84     21.6425   8.9156  40.2478   C.2       1 RES1   0.0000
  1407 C87     31.3304  12.7251  44.5888   C.2       1 RES1   0.0000
  1408 C88     31.0914  14.0271  44.5888   C.2       1 RES1   0.0000
  1409 H35     23.2673   8.9156  39.1367   H         1 RES1   0.0000
  1410 H36     21.3197   8.9156  41.1199   H         1 RES1   0.0000
  1411 H39     32.2025  12.4023  44.5888   H         1 RES1   0.0000
  1412 H40     30.2193  14.3499  44.5888   H         1 RES1   0.0000
  1413 O99     25.3878  10.5529  45.7409   O3        1 RES1   0.0000
  1414 O103    27.9061   7.5530  46.2225   O3        1 RES1   0.0000
  1415 O105    28.3877  16.6809  37.0340   O3        1 RES1   0.0000
  1416 O106    34.0341  16.6809  43.2226   O3        1 RES1   0.0000
  1417 O107    28.3877  10.0713  43.2226   O3        1 RES1   0.0000
  1418 O111    28.1166   7.2819  43.4331   O3        1 RES1   0.0000
  1419 O115    25.5983  10.2818  42.9515   O3        1 RES1   0.0000
  1420 O116    25.5983  16.4704  37.3051   O3        1 RES1   0.0000
  1421 O119    25.1167   7.7635  45.9514   O3        1 RES1   0.0000
  1422 O155    25.3522   7.5174  43.1870   O3        1 RES1   0.0000
  1423 O159    28.1522  10.3174  45.9870   O3        1 RES1   0.0000
  1424 O160    34.2696  16.4348  45.9870   O3        1 RES1   0.0000
  1425 Zr1     38.1281   9.1159  35.8815   Zr        1 RES1   0.0000
  1426 Zr4     38.1281  17.6363  44.3751   Zr        1 RES1   0.0000
  1427 Zr9     26.9507  18.0467  38.1281   Zr        1 RES1   0.0000
  1428 Zr10    35.4711  18.0467  42.1285   Zr        1 RES1   0.0000
  1429 Zr16    33.2111  18.0333  44.7989   Zr        1 RES1   0.0000
  1430 Zr22    35.8681  17.6229  47.0455   Zr        1 RES1   0.0000
  1431 O2      23.0247  19.4667  35.8123   Oco2      1 RES1   0.0000
  1432 O4      21.5623  19.4667  44.4443   Oco2      1 RES1   0.0000
  1433 O12     37.3015   8.7747  39.3971   Oco2      1 RES1   0.0000
  1434 O50     23.3707  17.7046  37.9221   Oco2      1 RES1   0.0000
  1435 O52     21.2163  17.7046  42.3345   Oco2      1 RES1   0.0000
  1436 O89     37.2854  14.1109  44.1607   Oco2      1 RES1   0.0000
  1437 O90     37.2854  12.6413  36.0959   Oco2      1 RES1   0.0000
  1438 O97     37.0340  10.5529  34.5157   O3        1 RES1   0.0000
  1439 O100    37.0340  16.1993  45.7409   O3        1 RES1   0.0000
  1440 O113    36.8235  16.4704  42.9515   O3        1 RES1   0.0000
  1441 O114    36.8235  10.2818  37.3051   O3        1 RES1   0.0000
  1442 O118    19.4703  18.9887  45.9514   O3        1 RES1   0.0000
  1443 O120    19.4703   7.7635  34.3052   O3        1 RES1   0.0000
  1444 O153    37.0696   7.5174  37.0696   O3        1 RES1   0.0000
  1445 O154    25.3522  19.2348  37.0696   O3        1 RES1   0.0000
  1446 Zr3     24.2937  26.9507   8.7055   Zr        1 RES1   0.0000
  1447 Zr7     26.5403  24.2937   9.1159   Zr        1 RES1   0.0000
  1448 Zr11    26.9507  26.5403   6.4589   Zr        1 RES1   0.0000
  1449 Zr13    33.2111  26.5537  17.6229   Zr        1 RES1   0.0000
  1450 Zr15    29.2107  26.5537   9.1293   Zr        1 RES1   0.0000
  1451 Zr17    35.4577  33.2111   8.7189   Zr        1 RES1   0.0000
  1452 Zr19    26.9641  29.2107   8.7189   Zr        1 RES1   0.0000
  1453 Zr21    26.5537  35.4577  15.3763   Zr        1 RES1   0.0000
  1454 Zr23    26.5537  26.9641  11.3759   Zr        1 RES1   0.0000
  1455 O3      23.0247  25.1203   8.7747   Oco2      1 RES1   0.0000
  1456 O13     31.9421  28.3841  17.6921   Oco2      1 RES1   0.0000
  1457 O14     30.4797  34.0377  17.6921   Oco2      1 RES1   0.0000
  1458 O15     30.4797  28.3841   9.0601   Oco2      1 RES1   0.0000
  1459 O16     31.9421  34.0377   9.0601   Oco2      1 RES1   0.0000
  1460 O17     35.5269  31.9421  10.5493   Oco2      1 RES1   0.0000
  1461 O18     35.5269  30.4797  16.2029   Oco2      1 RES1   0.0000
  1462 O19     26.8949  30.4797  10.5493   Oco2      1 RES1   0.0000
  1463 O20     26.8949  31.9421  16.2029   Oco2      1 RES1   0.0000
  1464 O21     28.3841  35.5269  14.1073   Oco2      1 RES1   0.0000
  1465 O22     34.0377  35.5269  12.6449   Oco2      1 RES1   0.0000
  1466 O23     28.3841  26.8949  12.6449   Oco2      1 RES1   0.0000
  1467 O24     34.0377  26.8949  14.1073   Oco2      1 RES1   0.0000
  1468 O27     23.3565  28.9744   8.4787   Oco2      1 RES1   0.0000
  1469 O28     21.2305  33.4474   8.4787   Oco2      1 RES1   0.0000
  1470 O29     18.2735  21.2305  11.1396   Oco2      1 RES1   0.0000
  1471 O30     18.2735  23.3565  15.6126   Oco2      1 RES1   0.0000
  1472 O31     26.3135  23.3565  11.1396   Oco2      1 RES1   0.0000
  1473 O32     26.3135  21.2305  15.6126   Oco2      1 RES1   0.0000
  1474 O37     32.2739  24.5300  17.3961   Oco2      1 RES1   0.0000
  1475 O38     30.1479  20.0570  17.3961   Oco2      1 RES1   0.0000
  1476 O39     30.1479  24.5300   9.3561   Oco2      1 RES1   0.0000
  1477 O40     32.2739  20.0570   9.3561   Oco2      1 RES1   0.0000
  1478 O45     24.5300  35.2309  14.4391   Oco2      1 RES1   0.0000
  1479 O46     20.0570  35.2309  12.3131   Oco2      1 RES1   0.0000
  1480 O47     24.5300  27.1909  12.3131   Oco2      1 RES1   0.0000
  1481 O48     20.0570  27.1909  14.4391   Oco2      1 RES1   0.0000
  1482 O53     20.0873  21.2163   9.0476   Oco2      1 RES1   0.0000
  1483 O55     24.4997  23.3707   9.0476   Oco2      1 RES1   0.0000
  1484 O61     32.2881  26.6220  15.5823   Oco2      1 RES1   0.0000
  1485 O62     30.1337  35.7998  15.5823   Oco2      1 RES1   0.0000
  1486 O63     30.1337  26.6220  11.1699   Oco2      1 RES1   0.0000
  1487 O64     32.2881  35.7998  11.1699   Oco2      1 RES1   0.0000
  1488 O65     33.4171  32.2881   8.7872   Oco2      1 RES1   0.0000
  1489 O66     33.4171  30.1337  17.9650   Oco2      1 RES1   0.0000
  1490 O67     29.0047  30.1337   8.7872   Oco2      1 RES1   0.0000
  1491 O68     29.0047  32.2881  17.9650   Oco2      1 RES1   0.0000
  1492 O69     26.6220  33.4171  14.4533   Oco2      1 RES1   0.0000
  1493 O70     35.7998  33.4171  12.2989   Oco2      1 RES1   0.0000
  1494 O71     26.6220  29.0047  12.2989   Oco2      1 RES1   0.0000
  1495 O72     35.7998  29.0047  14.4533   Oco2      1 RES1   0.0000
  1496 O73     21.5587  27.1785  16.2190   Oco2      1 RES1   0.0000
  1497 O74     23.0283  35.2433  16.2190   Oco2      1 RES1   0.0000
  1498 O75     23.0283  27.1785  10.5332   Oco2      1 RES1   0.0000
  1499 O76     21.5587  35.2433  10.5332   Oco2      1 RES1   0.0000
  1500 O77     34.0538  21.5587   9.3437   Oco2      1 RES1   0.0000
  1501 O78     34.0538  23.0283  17.4085   Oco2      1 RES1   0.0000
  1502 O79     28.3680  23.0283   9.3437   Oco2      1 RES1   0.0000
  1503 O80     28.3680  21.5587  17.4085   Oco2      1 RES1   0.0000
  1504 O91     25.1364  30.4761   8.4911   Oco2      1 RES1   0.0000
  1505 O95     26.3259  25.1364  12.6413   Oco2      1 RES1   0.0000
  1506 O96     18.2611  25.1364  14.1109   Oco2      1 RES1   0.0000
  1507 C3      23.8915  30.1248   8.4894   C.2       1 RES1   0.0000
  1508 C4      20.6955  32.2970   8.4894   C.2       1 RES1   0.0000
  1509 C5      18.2628  20.6955  12.2900   C.2       1 RES1   0.0000
  1510 C6      18.2628  23.8915  14.4622   C.2       1 RES1   0.0000
  1511 C7      26.3242  23.8915  12.2900   C.2       1 RES1   0.0000
  1512 C8      26.3242  20.6955  14.4622   C.2       1 RES1   0.0000
  1513 C13     32.8089  23.3796  17.4068   C.2       1 RES1   0.0000
  1514 C14     29.6129  21.2074  17.4068   C.2       1 RES1   0.0000
  1515 C15     29.6129  23.3796   9.3454   C.2       1 RES1   0.0000
  1516 C16     32.8089  21.2074   9.3454   C.2       1 RES1   0.0000
  1517 C21     23.3796  35.2416  14.9741   C.2       1 RES1   0.0000
  1518 C22     21.2074  35.2416  11.7781   C.2       1 RES1   0.0000
  1519 C23     23.3796  27.1802  11.7781   C.2       1 RES1   0.0000
  1520 C24     21.2074  27.1802  14.9741   C.2       1 RES1   0.0000
  1521 C27     22.9320  31.3090   8.4840   C.2       1 RES1   0.0000
  1522 C28     21.6550  31.1128   8.4840   C.2       1 RES1   0.0000
  1523 C29     18.2682  21.6550  13.4742   C.2       1 RES1   0.0000
  1524 C30     18.2682  22.9320  13.2780   C.2       1 RES1   0.0000
  1525 C31     26.3188  22.9320  13.4742   C.2       1 RES1   0.0000
  1526 C32     26.3188  21.6550  13.2780   C.2       1 RES1   0.0000
  1527 C37     31.8494  22.1954  17.4014   C.2       1 RES1   0.0000
  1528 C38     30.5724  22.3916  17.4014   C.2       1 RES1   0.0000
  1529 C39     30.5724  22.1954   9.3508   C.2       1 RES1   0.0000
  1530 C40     31.8494  22.3916   9.3508   C.2       1 RES1   0.0000
  1531 C45     22.1954  35.2362  14.0146   C.2       1 RES1   0.0000
  1532 C46     22.3916  35.2362  12.7376   C.2       1 RES1   0.0000
  1533 C47     22.1954  27.1856  12.7376   C.2       1 RES1   0.0000
  1534 C48     22.3916  27.1856  14.0146   C.2       1 RES1   0.0000
  1535 H3      23.2655  32.1775   8.4822   H         1 RES1   0.0000
  1536 H4      21.3215  30.2443   8.4822   H         1 RES1   0.0000
  1537 H5      18.2700  21.3215  14.3427   H         1 RES1   0.0000
  1538 H6      18.2700  23.2655  12.4095   H         1 RES1   0.0000
  1539 H7      26.3170  23.2655  14.3427   H         1 RES1   0.0000
  1540 H8      26.3170  21.3215  12.4095   H         1 RES1   0.0000
  1541 H13     32.1829  21.3269  17.3996   H         1 RES1   0.0000
  1542 H14     30.2389  23.2601  17.3996   H         1 RES1   0.0000
  1543 H15     30.2389  21.3269   9.3526   H         1 RES1   0.0000
  1544 H16     32.1829  23.2601   9.3526   H         1 RES1   0.0000
  1545 H21     21.3269  35.2344  14.3481   H         1 RES1   0.0000
  1546 H22     23.2601  35.2344  12.4041   H         1 RES1   0.0000
  1547 H23     21.3269  27.1874  12.4041   H         1 RES1   0.0000
  1548 H24     23.2601  27.1874  14.3481   H         1 RES1   0.0000
  1549 C51     23.3529  23.8951   8.9174   C.2       1 RES1   0.0000
  1550 C52     21.2341  20.6919   8.9174   C.2       1 RES1   0.0000
  1551 C61     32.2703  29.6093  17.8348   C.2       1 RES1   0.0000
  1552 C62     30.1515  32.8125  17.8348   C.2       1 RES1   0.0000
  1553 C63     30.1515  29.6093   8.9174   C.2       1 RES1   0.0000
  1554 C64     32.2703  32.8125   8.9174   C.2       1 RES1   0.0000
  1555 C65     35.6696  32.2703  11.7745   C.2       1 RES1   0.0000
  1556 C66     35.6696  30.1515  14.9777   C.2       1 RES1   0.0000
  1557 C67     26.7522  30.1515  11.7745   C.2       1 RES1   0.0000
  1558 C68     26.7522  32.2703  14.9777   C.2       1 RES1   0.0000
  1559 C69     29.6093  35.6696  14.4355   C.2       1 RES1   0.0000
  1560 C70     32.8125  35.6696  12.3167   C.2       1 RES1   0.0000
  1561 C71     29.6093  26.7522  12.3167   C.2       1 RES1   0.0000
  1562 C72     32.8125  26.7522  14.4355   C.2       1 RES1   0.0000
  1563 C75     22.1740  22.9445   8.9156   C.2       1 RES1   0.0000
  1564 C76     22.4130  21.6425   8.9156   C.2       1 RES1   0.0000
  1565 C85     31.0914  30.5599  17.8330   C.2       1 RES1   0.0000
  1566 C86     31.3304  31.8619  17.8330   C.2       1 RES1   0.0000
  1567 C87     31.3304  30.5599   8.9192   C.2       1 RES1   0.0000
  1568 C88     31.0914  31.8619   8.9192   C.2       1 RES1   0.0000
  1569 C89     35.6678  31.0914  12.7251   C.2       1 RES1   0.0000
  1570 C90     35.6678  31.3304  14.0271   C.2       1 RES1   0.0000
  1571 C91     26.7540  31.3304  12.7251   C.2       1 RES1   0.0000
  1572 C92     26.7540  31.0914  14.0271   C.2       1 RES1   0.0000
  1573 C93     30.5599  35.6678  13.2566   C.2       1 RES1   0.0000
  1574 C94     31.8619  35.6678  13.4956   C.2       1 RES1   0.0000
  1575 C95     30.5599  26.7540  13.4956   C.2       1 RES1   0.0000
  1576 C96     31.8619  26.7540  13.2566   C.2       1 RES1   0.0000
  1577 H27     21.3019  23.2673   8.9156   H         1 RES1   0.0000
  1578 H28     23.2851  21.3197   8.9156   H         1 RES1   0.0000
  1579 H37     30.2193  30.2371  17.8330   H         1 RES1   0.0000
  1580 H38     32.2025  32.1847  17.8330   H         1 RES1   0.0000
  1581 H39     32.2025  30.2371   8.9192   H         1 RES1   0.0000
  1582 H40     30.2193  32.1847   8.9192   H         1 RES1   0.0000
  1583 H41     35.6678  30.2193  12.4023   H         1 RES1   0.0000
  1584 H42     35.6678  32.2025  14.3499   H         1 RES1   0.0000
  1585 H43     26.7540  32.2025  12.4023   H         1 RES1   0.0000
  1586 H44     26.7540  30.2193  14.3499   H         1 RES1   0.0000
  1587 H45     30.2371  35.6678  12.3845   H         1 RES1   0.0000
  1588 H46     32.1847  35.6678  14.3677   H         1 RES1   0.0000
  1589 H47     30.2371  26.7540  14.3677   H         1 RES1   0.0000
  1590 H48     32.1847  26.7540  12.3845   H         1 RES1   0.0000
  1591 O98     25.3878  34.0341  16.6809   O3        1 RES1   0.0000
  1592 O99     25.3878  28.3877  10.0713   O3        1 RES1   0.0000
  1593 O101    34.5157  19.1992  10.5529   O3        1 RES1   0.0000
  1594 O102    34.5157  25.3878  16.1993   O3        1 RES1   0.0000
  1595 O103    27.9061  25.3878  10.5529   O3        1 RES1   0.0000
  1596 O106    34.0341  34.5157   7.5530   O3        1 RES1   0.0000
  1597 O107    28.3877  27.9061   7.5530   O3        1 RES1   0.0000
  1598 O111    28.1166  25.1167   7.7635   O3        1 RES1   0.0000
  1599 O112    34.3052  19.4703   7.7635   O3        1 RES1   0.0000
  1600 O115    25.5983  28.1166   7.2819   O3        1 RES1   0.0000
  1601 O119    25.1167  25.5983  10.2818   O3        1 RES1   0.0000
  1602 O155    25.3522  25.3522   7.5174   O3        1 RES1   0.0000
  1603 O157    34.2696  28.1522  16.4348   O3        1 RES1   0.0000
  1604 O158    28.1522  34.2696  16.4348   O3        1 RES1   0.0000
  1605 O159    28.1522  28.1522  10.3174   O3        1 RES1   0.0000
  1606 O160    34.2696  34.2696  10.3174   O3        1 RES1   0.0000
  1607 Zr2     24.2937  35.4711  18.0467   Zr        1 RES1   0.0000
  1608 Zr4     38.1281  35.4711   8.7055   Zr        1 RES1   0.0000
  1609 Zr5     35.8815  20.2933   9.1159   Zr        1 RES1   0.0000
  1610 Zr6     35.8815  24.2937  17.6363   Zr        1 RES1   0.0000
  1611 Zr8     26.5403  38.1281  17.6363   Zr        1 RES1   0.0000
  1612 Zr10    35.4711  35.8815   6.4589   Zr        1 RES1   0.0000
  1613 Zr12    35.4711  26.5403  20.2933   Zr        1 RES1   0.0000
  1614 Zr14    29.2107  35.8681  17.6229   Zr        1 RES1   0.0000
  1615 Zr16    33.2111  35.8681   9.1293   Zr        1 RES1   0.0000
  1616 Zr18    35.4577  29.2107  18.0333   Zr        1 RES1   0.0000
  1617 Zr20    26.9641  33.2111  18.0333   Zr        1 RES1   0.0000
  1618 Zr22    35.8681  35.4577  11.3759   Zr        1 RES1   0.0000
  1619 Zr24    35.8681  26.9641  15.3763   Zr        1 RES1   0.0000
  1620 O4      21.5623  37.3015   8.7747   Oco2      1 RES1   0.0000
  1621 O6      17.9775  23.0247  19.4667   Oco2      1 RES1   0.0000
  1622 O8      26.6095  21.5623  19.4667   Oco2      1 RES1   0.0000
  1623 O54     20.0873  23.3707  17.7046   Oco2      1 RES1   0.0000
  1624 O56     24.4997  21.2163  17.7046   Oco2      1 RES1   0.0000
  1625 O85     31.9457  26.3259  19.4506   Oco2      1 RES1   0.0000
  1626 O86     30.4761  18.2611  19.4506   Oco2      1 RES1   0.0000
  1627 O89     37.2854  31.9457   8.4911   Oco2      1 RES1   0.0000
  1628 O93     26.3259  37.2854  14.1109   Oco2      1 RES1   0.0000
  1629 O94     18.2611  37.2854  12.6413   Oco2      1 RES1   0.0000
  1630 O100    37.0340  34.0341  10.0713   O3        1 RES1   0.0000
  1631 O104    27.9061  37.0340  16.1993   O3        1 RES1   0.0000
  1632 O108    34.0341  27.9061  19.1992   O3        1 RES1   0.0000
  1633 O109    34.3052  25.1167  18.9887   O3        1 RES1   0.0000
  1634 O110    28.1166  19.4703  18.9887   O3        1 RES1   0.0000
  1635 O113    36.8235  34.3052   7.2819   O3        1 RES1   0.0000
  1636 O117    25.1167  36.8235  16.4704   O3        1 RES1   0.0000
  1637 O118    19.4703  36.8235  10.2818   O3        1 RES1   0.0000
  1638 O156    37.0696  19.2348   7.5174   O3        1 RES1   0.0000
  1639 Zr3     24.2937  26.9507  26.5403   Zr        1 RES1   0.0000
  1640 Zr7     26.5403  24.2937  26.9507   Zr        1 RES1   0.0000
  1641 Zr11    26.9507  26.5403  24.2937   Zr        1 RES1   0.0000
  1642 Zr13    33.2111  26.5537  35.4577   Zr        1 RES1   0.0000
  1643 Zr15    29.2107  26.5537  26.9641   Zr        1 RES1   0.0000
  1644 Zr17    35.4577  33.2111  26.5537   Zr        1 RES1   0.0000
  1645 Zr19    26.9641  29.2107  26.5537   Zr        1 RES1   0.0000
  1646 Zr21    26.5537  35.4577  33.2111   Zr        1 RES1   0.0000
  1647 Zr23    26.5537  26.9641  29.2107   Zr        1 RES1   0.0000
  1648 O1      21.5623  25.1203  17.9775   Oco2      1 RES1   0.0000
  1649 O3      23.0247  25.1203  26.6095   Oco2      1 RES1   0.0000
  1650 O5      17.9775  21.5623  25.1203   Oco2      1 RES1   0.0000
  1651 O7      26.6095  23.0247  25.1203   Oco2      1 RES1   0.0000
  1652 O9      25.1203  17.9775  21.5623   Oco2      1 RES1   0.0000
  1653 O11     25.1203  26.6095  23.0247   Oco2      1 RES1   0.0000
  1654 O13     31.9421  28.3841  35.5269   Oco2      1 RES1   0.0000
  1655 O14     30.4797  34.0377  35.5269   Oco2      1 RES1   0.0000
  1656 O15     30.4797  28.3841  26.8949   Oco2      1 RES1   0.0000
  1657 O16     31.9421  34.0377  26.8949   Oco2      1 RES1   0.0000
  1658 O17     35.5269  31.9421  28.3841   Oco2      1 RES1   0.0000
  1659 O18     35.5269  30.4797  34.0377   Oco2      1 RES1   0.0000
  1660 O19     26.8949  30.4797  28.3841   Oco2      1 RES1   0.0000
  1661 O20     26.8949  31.9421  34.0377   Oco2      1 RES1   0.0000
  1662 O21     28.3841  35.5269  31.9421   Oco2      1 RES1   0.0000
  1663 O22     34.0377  35.5269  30.4797   Oco2      1 RES1   0.0000
  1664 O23     28.3841  26.8949  30.4797   Oco2      1 RES1   0.0000
  1665 O24     34.0377  26.8949  31.9421   Oco2      1 RES1   0.0000
  1666 O25     21.2305  28.9744  18.2735   Oco2      1 RES1   0.0000
  1667 O26     23.3565  33.4474  18.2735   Oco2      1 RES1   0.0000
  1668 O27     23.3565  28.9744  26.3135   Oco2      1 RES1   0.0000
  1669 O28     21.2305  33.4474  26.3135   Oco2      1 RES1   0.0000
  1670 O29     18.2735  21.2305  28.9744   Oco2      1 RES1   0.0000
  1671 O30     18.2735  23.3565  33.4474   Oco2      1 RES1   0.0000
  1672 O31     26.3135  23.3565  28.9744   Oco2      1 RES1   0.0000
  1673 O32     26.3135  21.2305  33.4474   Oco2      1 RES1   0.0000
  1674 O33     28.9744  18.2735  21.2305   Oco2      1 RES1   0.0000
  1675 O34     33.4474  18.2735  23.3565   Oco2      1 RES1   0.0000
  1676 O35     28.9744  26.3135  23.3565   Oco2      1 RES1   0.0000
  1677 O36     33.4474  26.3135  21.2305   Oco2      1 RES1   0.0000
  1678 O37     32.2739  24.5300  35.2309   Oco2      1 RES1   0.0000
  1679 O38     30.1479  20.0570  35.2309   Oco2      1 RES1   0.0000
  1680 O39     30.1479  24.5300  27.1909   Oco2      1 RES1   0.0000
  1681 O40     32.2739  20.0570  27.1909   Oco2      1 RES1   0.0000
  1682 O41     35.2309  32.2739  24.5300   Oco2      1 RES1   0.0000
  1683 O42     35.2309  30.1479  20.0570   Oco2      1 RES1   0.0000
  1684 O43     27.1909  30.1479  24.5300   Oco2      1 RES1   0.0000
  1685 O44     27.1909  32.2739  20.0570   Oco2      1 RES1   0.0000
  1686 O45     24.5300  35.2309  32.2739   Oco2      1 RES1   0.0000
  1687 O46     20.0570  35.2309  30.1479   Oco2      1 RES1   0.0000
  1688 O47     24.5300  27.1909  30.1479   Oco2      1 RES1   0.0000
  1689 O48     20.0570  27.1909  32.2739   Oco2      1 RES1   0.0000
  1690 O49     21.2163  26.8824  20.0873   Oco2      1 RES1   0.0000
  1691 O51     23.3707  26.8824  24.4997   Oco2      1 RES1   0.0000
  1692 O53     20.0873  21.2163  26.8824   Oco2      1 RES1   0.0000
  1693 O55     24.4997  23.3707  26.8824   Oco2      1 RES1   0.0000
  1694 O57     26.8824  20.0873  21.2163   Oco2      1 RES1   0.0000
  1695 O59     26.8824  24.4997  23.3707   Oco2      1 RES1   0.0000
  1696 O61     32.2881  26.6220  33.4171   Oco2      1 RES1   0.0000
  1697 O62     30.1337  35.7998  33.4171   Oco2      1 RES1   0.0000
  1698 O63     30.1337  26.6220  29.0047   Oco2      1 RES1   0.0000
  1699 O64     32.2881  35.7998  29.0047   Oco2      1 RES1   0.0000
  1700 O65     33.4171  32.2881  26.6220   Oco2      1 RES1   0.0000
  1701 O66     33.4171  30.1337  35.7998   Oco2      1 RES1   0.0000
  1702 O67     29.0047  30.1337  26.6220   Oco2      1 RES1   0.0000
  1703 O68     29.0047  32.2881  35.7998   Oco2      1 RES1   0.0000
  1704 O69     26.6220  33.4171  32.2881   Oco2      1 RES1   0.0000
  1705 O70     35.7998  33.4171  30.1337   Oco2      1 RES1   0.0000
  1706 O71     26.6220  29.0047  30.1337   Oco2      1 RES1   0.0000
  1707 O72     35.7998  29.0047  32.2881   Oco2      1 RES1   0.0000
  1708 O73     21.5587  27.1785  34.0538   Oco2      1 RES1   0.0000
  1709 O74     23.0283  35.2433  34.0538   Oco2      1 RES1   0.0000
  1710 O75     23.0283  27.1785  28.3680   Oco2      1 RES1   0.0000
  1711 O76     21.5587  35.2433  28.3680   Oco2      1 RES1   0.0000
  1712 O77     34.0538  21.5587  27.1785   Oco2      1 RES1   0.0000
  1713 O78     34.0538  23.0283  35.2433   Oco2      1 RES1   0.0000
  1714 O79     28.3680  23.0283  27.1785   Oco2      1 RES1   0.0000
  1715 O80     28.3680  21.5587  35.2433   Oco2      1 RES1   0.0000
  1716 O81     27.1785  34.0538  21.5587   Oco2      1 RES1   0.0000
  1717 O82     35.2433  34.0538  23.0283   Oco2      1 RES1   0.0000
  1718 O83     27.1785  28.3680  23.0283   Oco2      1 RES1   0.0000
  1719 O84     35.2433  28.3680  21.5587   Oco2      1 RES1   0.0000
  1720 O87     30.4761  26.3259  25.1364   Oco2      1 RES1   0.0000
  1721 O88     31.9457  18.2611  25.1364   Oco2      1 RES1   0.0000
  1722 O91     25.1364  30.4761  26.3259   Oco2      1 RES1   0.0000
  1723 O92     25.1364  31.9457  18.2611   Oco2      1 RES1   0.0000
  1724 O95     26.3259  25.1364  30.4761   Oco2      1 RES1   0.0000
  1725 O96     18.2611  25.1364  31.9457   Oco2      1 RES1   0.0000
  1726 C1      20.6955  30.1248  18.2628   C.2       1 RES1   0.0000
  1727 C2      23.8915  32.2970  18.2628   C.2       1 RES1   0.0000
  1728 C3      23.8915  30.1248  26.3242   C.2       1 RES1   0.0000
  1729 C4      20.6955  32.2970  26.3242   C.2       1 RES1   0.0000
  1730 C5      18.2628  20.6955  30.1248   C.2       1 RES1   0.0000
  1731 C6      18.2628  23.8915  32.2970   C.2       1 RES1   0.0000
  1732 C7      26.3242  23.8915  30.1248   C.2       1 RES1   0.0000
  1733 C8      26.3242  20.6955  32.2970   C.2       1 RES1   0.0000
  1734 C9      30.1248  18.2628  20.6955   C.2       1 RES1   0.0000
  1735 C10     32.2970  18.2628  23.8915   C.2       1 RES1   0.0000
  1736 C11     30.1248  26.3242  23.8915   C.2       1 RES1   0.0000
  1737 C12     32.2970  26.3242  20.6955   C.2       1 RES1   0.0000
  1738 C13     32.8089  23.3796  35.2416   C.2       1 RES1   0.0000
  1739 C14     29.6129  21.2074  35.2416   C.2       1 RES1   0.0000
  1740 C15     29.6129  23.3796  27.1802   C.2       1 RES1   0.0000
  1741 C16     32.8089  21.2074  27.1802   C.2       1 RES1   0.0000
  1742 C17     35.2416  32.8089  23.3796   C.2       1 RES1   0.0000
  1743 C18     35.2416  29.6129  21.2074   C.2       1 RES1   0.0000
  1744 C19     27.1802  29.6129  23.3796   C.2       1 RES1   0.0000
  1745 C20     27.1802  32.8089  21.2074   C.2       1 RES1   0.0000
  1746 C21     23.3796  35.2416  32.8089   C.2       1 RES1   0.0000
  1747 C22     21.2074  35.2416  29.6129   C.2       1 RES1   0.0000
  1748 C23     23.3796  27.1802  29.6129   C.2       1 RES1   0.0000
  1749 C24     21.2074  27.1802  32.8089   C.2       1 RES1   0.0000
  1750 C25     21.6550  31.3090  18.2682   C.2       1 RES1   0.0000
  1751 C26     22.9320  31.1128  18.2682   C.2       1 RES1   0.0000
  1752 C27     22.9320  31.3090  26.3188   C.2       1 RES1   0.0000
  1753 C28     21.6550  31.1128  26.3188   C.2       1 RES1   0.0000
  1754 C29     18.2682  21.6550  31.3090   C.2       1 RES1   0.0000
  1755 C30     18.2682  22.9320  31.1128   C.2       1 RES1   0.0000
  1756 C31     26.3188  22.9320  31.3090   C.2       1 RES1   0.0000
  1757 C32     26.3188  21.6550  31.1128   C.2       1 RES1   0.0000
  1758 C33     31.3090  18.2682  21.6550   C.2       1 RES1   0.0000
  1759 C34     31.1128  18.2682  22.9320   C.2       1 RES1   0.0000
  1760 C35     31.3090  26.3188  22.9320   C.2       1 RES1   0.0000
  1761 C36     31.1128  26.3188  21.6550   C.2       1 RES1   0.0000
  1762 C37     31.8494  22.1954  35.2362   C.2       1 RES1   0.0000
  1763 C38     30.5724  22.3916  35.2362   C.2       1 RES1   0.0000
  1764 C39     30.5724  22.1954  27.1856   C.2       1 RES1   0.0000
  1765 C40     31.8494  22.3916  27.1856   C.2       1 RES1   0.0000
  1766 C41     35.2362  31.8494  22.1954   C.2       1 RES1   0.0000
  1767 C42     35.2362  30.5724  22.3916   C.2       1 RES1   0.0000
  1768 C43     27.1856  30.5724  22.1954   C.2       1 RES1   0.0000
  1769 C44     27.1856  31.8494  22.3916   C.2       1 RES1   0.0000
  1770 C45     22.1954  35.2362  31.8494   C.2       1 RES1   0.0000
  1771 C46     22.3916  35.2362  30.5724   C.2       1 RES1   0.0000
  1772 C47     22.1954  27.1856  30.5724   C.2       1 RES1   0.0000
  1773 C48     22.3916  27.1856  31.8494   C.2       1 RES1   0.0000
  1774 H1      21.3215  32.1775  18.2700   H         1 RES1   0.0000
  1775 H2      23.2655  30.2443  18.2700   H         1 RES1   0.0000
  1776 H3      23.2655  32.1775  26.3170   H         1 RES1   0.0000
  1777 H4      21.3215  30.2443  26.3170   H         1 RES1   0.0000
  1778 H5      18.2700  21.3215  32.1775   H         1 RES1   0.0000
  1779 H6      18.2700  23.2655  30.2443   H         1 RES1   0.0000
  1780 H7      26.3170  23.2655  32.1775   H         1 RES1   0.0000
  1781 H8      26.3170  21.3215  30.2443   H         1 RES1   0.0000
  1782 H9      32.1775  18.2700  21.3215   H         1 RES1   0.0000
  1783 H10     30.2443  18.2700  23.2655   H         1 RES1   0.0000
  1784 H11     32.1775  26.3170  23.2655   H         1 RES1   0.0000
  1785 H12     30.2443  26.3170  21.3215   H         1 RES1   0.0000
  1786 H13     32.1829  21.3269  35.2344   H         1 RES1   0.0000
  1787 H14     30.2389  23.2601  35.2344   H         1 RES1   0.0000
  1788 H15     30.2389  21.3269  27.1874   H         1 RES1   0.0000
  1789 H16     32.1829  23.2601  27.1874   H         1 RES1   0.0000
  1790 H17     35.2344  32.1829  21.3269   H         1 RES1   0.0000
  1791 H18     35.2344  30.2389  23.2601   H         1 RES1   0.0000
  1792 H19     27.1874  30.2389  21.3269   H         1 RES1   0.0000
  1793 H20     27.1874  32.1829  23.2601   H         1 RES1   0.0000
  1794 H21     21.3269  35.2344  32.1829   H         1 RES1   0.0000
  1795 H22     23.2601  35.2344  30.2389   H         1 RES1   0.0000
  1796 H23     21.3269  27.1874  30.2389   H         1 RES1   0.0000
  1797 H24     23.2601  27.1874  32.1829   H         1 RES1   0.0000
  1798 C49     21.2341  23.8951  17.8348   C.2       1 RES1   0.0000
  1799 C50     23.3529  20.6919  17.8348   C.2       1 RES1   0.0000
  1800 C51     23.3529  23.8951  26.7522   C.2       1 RES1   0.0000
  1801 C52     21.2341  20.6919  26.7522   C.2       1 RES1   0.0000
  1802 C53     17.8348  21.2341  23.8951   C.2       1 RES1   0.0000
  1803 C54     17.8348  23.3529  20.6919   C.2       1 RES1   0.0000
  1804 C55     26.7522  23.3529  23.8951   C.2       1 RES1   0.0000
  1805 C56     26.7522  21.2341  20.6919   C.2       1 RES1   0.0000
  1806 C57     23.8951  17.8348  21.2341   C.2       1 RES1   0.0000
  1807 C58     20.6919  17.8348  23.3529   C.2       1 RES1   0.0000
  1808 C59     23.8951  26.7522  23.3529   C.2       1 RES1   0.0000
  1809 C60     20.6919  26.7522  21.2341   C.2       1 RES1   0.0000
  1810 C61     32.2703  29.6093  35.6696   C.2       1 RES1   0.0000
  1811 C62     30.1515  32.8125  35.6696   C.2       1 RES1   0.0000
  1812 C63     30.1515  29.6093  26.7522   C.2       1 RES1   0.0000
  1813 C64     32.2703  32.8125  26.7522   C.2       1 RES1   0.0000
  1814 C65     35.6696  32.2703  29.6093   C.2       1 RES1   0.0000
  1815 C66     35.6696  30.1515  32.8125   C.2       1 RES1   0.0000
  1816 C67     26.7522  30.1515  29.6093   C.2       1 RES1   0.0000
  1817 C68     26.7522  32.2703  32.8125   C.2       1 RES1   0.0000
  1818 C69     29.6093  35.6696  32.2703   C.2       1 RES1   0.0000
  1819 C70     32.8125  35.6696  30.1515   C.2       1 RES1   0.0000
  1820 C71     29.6093  26.7522  30.1515   C.2       1 RES1   0.0000
  1821 C72     32.8125  26.7522  32.2703   C.2       1 RES1   0.0000
  1822 C73     22.4130  22.9445  17.8366   C.2       1 RES1   0.0000
  1823 C74     22.1740  21.6425  17.8366   C.2       1 RES1   0.0000
  1824 C75     22.1740  22.9445  26.7504   C.2       1 RES1   0.0000
  1825 C76     22.4130  21.6425  26.7504   C.2       1 RES1   0.0000
  1826 C77     17.8366  22.4130  22.9445   C.2       1 RES1   0.0000
  1827 C78     17.8366  22.1740  21.6425   C.2       1 RES1   0.0000
  1828 C79     26.7504  22.1740  22.9445   C.2       1 RES1   0.0000
  1829 C80     26.7504  22.4130  21.6425   C.2       1 RES1   0.0000
  1830 C81     22.9445  17.8366  22.4130   C.2       1 RES1   0.0000
  1831 C82     21.6425  17.8366  22.1740   C.2       1 RES1   0.0000
  1832 C83     22.9445  26.7504  22.1740   C.2       1 RES1   0.0000
  1833 C84     21.6425  26.7504  22.4130   C.2       1 RES1   0.0000
  1834 C85     31.0914  30.5599  35.6678   C.2       1 RES1   0.0000
  1835 C86     31.3304  31.8619  35.6678   C.2       1 RES1   0.0000
  1836 C87     31.3304  30.5599  26.7540   C.2       1 RES1   0.0000
  1837 C88     31.0914  31.8619  26.7540   C.2       1 RES1   0.0000
  1838 C89     35.6678  31.0914  30.5599   C.2       1 RES1   0.0000
  1839 C90     35.6678  31.3304  31.8619   C.2       1 RES1   0.0000
  1840 C91     26.7540  31.3304  30.5599   C.2       1 RES1   0.0000
  1841 C92     26.7540  31.0914  31.8619   C.2       1 RES1   0.0000
  1842 C93     30.5599  35.6678  31.0914   C.2       1 RES1   0.0000
  1843 C94     31.8619  35.6678  31.3304   C.2       1 RES1   0.0000
  1844 C95     30.5599  26.7540  31.3304   C.2       1 RES1   0.0000
  1845 C96     31.8619  26.7540  31.0914   C.2       1 RES1   0.0000
  1846 H25     23.2851  23.2673  17.8366   H         1 RES1   0.0000
  1847 H26     21.3019  21.3197  17.8366   H         1 RES1   0.0000
  1848 H27     21.3019  23.2673  26.7504   H         1 RES1   0.0000
  1849 H28     23.2851  21.3197  26.7504   H         1 RES1   0.0000
  1850 H29     17.8366  23.2851  23.2673   H         1 RES1   0.0000
  1851 H30     17.8366  21.3019  21.3197   H         1 RES1   0.0000
  1852 H31     26.7504  21.3019  23.2673   H         1 RES1   0.0000
  1853 H32     26.7504  23.2851  21.3197   H         1 RES1   0.0000
  1854 H33     23.2673  17.8366  23.2851   H         1 RES1   0.0000
  1855 H34     21.3197  17.8366  21.3019   H         1 RES1   0.0000
  1856 H35     23.2673  26.7504  21.3019   H         1 RES1   0.0000
  1857 H36     21.3197  26.7504  23.2851   H         1 RES1   0.0000
  1858 H37     30.2193  30.2371  35.6678   H         1 RES1   0.0000
  1859 H38     32.2025  32.1847  35.6678   H         1 RES1   0.0000
  1860 H39     32.2025  30.2371  26.7540   H         1 RES1   0.0000
  1861 H40     30.2193  32.1847  26.7540   H         1 RES1   0.0000
  1862 H41     35.6678  30.2193  30.2371   H         1 RES1   0.0000
  1863 H42     35.6678  32.2025  32.1847   H         1 RES1   0.0000
  1864 H43     26.7540  32.2025  30.2371   H         1 RES1   0.0000
  1865 H44     26.7540  30.2193  32.1847   H         1 RES1   0.0000
  1866 H45     30.2371  35.6678  30.2193   H         1 RES1   0.0000
  1867 H46     32.1847  35.6678  32.2025   H         1 RES1   0.0000
  1868 H47     30.2371  26.7540  32.2025   H         1 RES1   0.0000
  1869 H48     32.1847  26.7540  30.2193   H         1 RES1   0.0000
  1870 O98     25.3878  34.0341  34.5157   O3        1 RES1   0.0000
  1871 O99     25.3878  28.3877  27.9061   O3        1 RES1   0.0000
  1872 O101    34.5157  19.1992  28.3877   O3        1 RES1   0.0000
  1873 O102    34.5157  25.3878  34.0341   O3        1 RES1   0.0000
  1874 O103    27.9061  25.3878  28.3877   O3        1 RES1   0.0000
  1875 O105    28.3877  34.5157  19.1992   O3        1 RES1   0.0000
  1876 O106    34.0341  34.5157  25.3878   O3        1 RES1   0.0000
  1877 O107    28.3877  27.9061  25.3878   O3        1 RES1   0.0000
  1878 O111    28.1166  25.1167  25.5983   O3        1 RES1   0.0000
  1879 O112    34.3052  19.4703  25.5983   O3        1 RES1   0.0000
  1880 O115    25.5983  28.1166  25.1167   O3        1 RES1   0.0000
  1881 O116    25.5983  34.3052  19.4703   O3        1 RES1   0.0000
  1882 O119    25.1167  25.5983  28.1166   O3        1 RES1   0.0000
  1883 O155    25.3522  25.3522  25.3522   O3        1 RES1   0.0000
  1884 O157    34.2696  28.1522  34.2696   O3        1 RES1   0.0000
  1885 O158    28.1522  34.2696  34.2696   O3        1 RES1   0.0000
  1886 O159    28.1522  28.1522  28.1522   O3        1 RES1   0.0000
  1887 O160    34.2696  34.2696  28.1522   O3        1 RES1   0.0000
  1888 Zr1     38.1281  26.9507  18.0467   Zr        1 RES1   0.0000
  1889 Zr2     24.2937  35.4711  35.8815   Zr        1 RES1   0.0000
  1890 Zr4     38.1281  35.4711  26.5403   Zr        1 RES1   0.0000
  1891 Zr5     35.8815  20.2933  26.9507   Zr        1 RES1   0.0000
  1892 Zr6     35.8815  24.2937  35.4711   Zr        1 RES1   0.0000
  1893 Zr8     26.5403  38.1281  35.4711   Zr        1 RES1   0.0000
  1894 Zr9     26.9507  35.8815  20.2933   Zr        1 RES1   0.0000
  1895 Zr10    35.4711  35.8815  24.2937   Zr        1 RES1   0.0000
  1896 Zr12    35.4711  26.5403  38.1281   Zr        1 RES1   0.0000
  1897 Zr14    29.2107  35.8681  35.4577   Zr        1 RES1   0.0000
  1898 Zr16    33.2111  35.8681  26.9641   Zr        1 RES1   0.0000
  1899 Zr18    35.4577  29.2107  35.8681   Zr        1 RES1   0.0000
  1900 Zr20    26.9641  33.2111  35.8681   Zr        1 RES1   0.0000
  1901 Zr22    35.8681  35.4577  29.2107   Zr        1 RES1   0.0000
  1902 Zr24    35.8681  26.9641  33.2111   Zr        1 RES1   0.0000
  1903 O2      23.0247  37.3015  17.9775   Oco2      1 RES1   0.0000
  1904 O4      21.5623  37.3015  26.6095   Oco2      1 RES1   0.0000
  1905 O6      17.9775  23.0247  37.3015   Oco2      1 RES1   0.0000
  1906 O8      26.6095  21.5623  37.3015   Oco2      1 RES1   0.0000
  1907 O10     37.3015  17.9775  23.0247   Oco2      1 RES1   0.0000
  1908 O12     37.3015  26.6095  21.5623   Oco2      1 RES1   0.0000
  1909 O50     23.3707  35.5394  20.0873   Oco2      1 RES1   0.0000
  1910 O52     21.2163  35.5394  24.4997   Oco2      1 RES1   0.0000
  1911 O54     20.0873  23.3707  35.5394   Oco2      1 RES1   0.0000
  1912 O56     24.4997  21.2163  35.5394   Oco2      1 RES1   0.0000
  1913 O58     35.5394  20.0873  23.3707   Oco2      1 RES1   0.0000
  1914 O60     35.5394  24.4997  21.2163   Oco2      1 RES1   0.0000
  1915 O85     31.9457  26.3259  37.2854   Oco2      1 RES1   0.0000
  1916 O86     30.4761  18.2611  37.2854   Oco2      1 RES1   0.0000
  1917 O89     37.2854  31.9457  26.3259   Oco2      1 RES1   0.0000
  1918 O90     37.2854  30.4761  18.2611   Oco2      1 RES1   0.0000
  1919 O93     26.3259  37.2854  31.9457   Oco2      1 RES1   0.0000
  1920 O94     18.2611  37.2854  30.4761   Oco2      1 RES1   0.0000
  1921 O97     37.0340  28.3877  16.6809   O3        1 RES1   0.0000
  1922 O100    37.0340  34.0341  27.9061   O3        1 RES1   0.0000
  1923 O104    27.9061  37.0340  34.0341   O3        1 RES1   0.0000
  1924 O108    34.0341  27.9061  37.0340   O3        1 RES1   0.0000
  1925 O109    34.3052  25.1167  36.8235   O3        1 RES1   0.0000
  1926 O110    28.1166  19.4703  36.8235   O3        1 RES1   0.0000
  1927 O113    36.8235  34.3052  25.1167   O3        1 RES1   0.0000
  1928 O114    36.8235  28.1166  19.4703   O3        1 RES1   0.0000
  1929 O117    25.1167  36.8235  34.3052   O3        1 RES1   0.0000
  1930 O118    19.4703  36.8235  28.1166   O3        1 RES1   0.0000
  1931 O120    19.4703  25.5983  16.4704   O3        1 RES1   0.0000
  1932 O153    37.0696  25.3522  19.2348   O3        1 RES1   0.0000
  1933 O154    25.3522  37.0696  19.2348   O3        1 RES1   0.0000
  1934 O156    37.0696  19.2348  25.3522   O3        1 RES1   0.0000
  1935 Zr3     24.2937  26.9507  44.3751   Zr        1 RES1   0.0000
  1936 Zr7     26.5403  24.2937  44.7855   Zr        1 RES1   0.0000
  1937 Zr11    26.9507  26.5403  42.1285   Zr        1 RES1   0.0000
  1938 Zr15    29.2107  26.5537  44.7989   Zr        1 RES1   0.0000
  1939 Zr17    35.4577  33.2111  44.3885   Zr        1 RES1   0.0000
  1940 Zr19    26.9641  29.2107  44.3885   Zr        1 RES1   0.0000
  1941 Zr23    26.5537  26.9641  47.0455   Zr        1 RES1   0.0000
  1942 O1      21.5623  25.1203  35.8123   Oco2      1 RES1   0.0000
  1943 O3      23.0247  25.1203  44.4443   Oco2      1 RES1   0.0000
  1944 O5      17.9775  21.5623  42.9551   Oco2      1 RES1   0.0000
  1945 O7      26.6095  23.0247  42.9551   Oco2      1 RES1   0.0000
  1946 O9      25.1203  17.9775  39.3971   Oco2      1 RES1   0.0000
  1947 O11     25.1203  26.6095  40.8595   Oco2      1 RES1   0.0000
  1948 O15     30.4797  28.3841  44.7297   Oco2      1 RES1   0.0000
  1949 O16     31.9421  34.0377  44.7297   Oco2      1 RES1   0.0000
  1950 O25     21.2305  28.9744  36.1083   Oco2      1 RES1   0.0000
  1951 O26     23.3565  33.4474  36.1083   Oco2      1 RES1   0.0000
  1952 O27     23.3565  28.9744  44.1483   Oco2      1 RES1   0.0000
  1953 O28     21.2305  33.4474  44.1483   Oco2      1 RES1   0.0000
  1954 O33     28.9744  18.2735  39.0653   Oco2      1 RES1   0.0000
  1955 O34     33.4474  18.2735  41.1913   Oco2      1 RES1   0.0000
  1956 O35     28.9744  26.3135  41.1913   Oco2      1 RES1   0.0000
  1957 O36     33.4474  26.3135  39.0653   Oco2      1 RES1   0.0000
  1958 O39     30.1479  24.5300  45.0257   Oco2      1 RES1   0.0000
  1959 O40     32.2739  20.0570  45.0257   Oco2      1 RES1   0.0000
  1960 O41     35.2309  32.2739  42.3648   Oco2      1 RES1   0.0000
  1961 O42     35.2309  30.1479  37.8918   Oco2      1 RES1   0.0000
  1962 O43     27.1909  30.1479  42.3648   Oco2      1 RES1   0.0000
  1963 O44     27.1909  32.2739  37.8918   Oco2      1 RES1   0.0000
  1964 O49     21.2163  26.8824  37.9221   Oco2      1 RES1   0.0000
  1965 O51     23.3707  26.8824  42.3345   Oco2      1 RES1   0.0000
  1966 O53     20.0873  21.2163  44.7172   Oco2      1 RES1   0.0000
  1967 O55     24.4997  23.3707  44.7172   Oco2      1 RES1   0.0000
  1968 O57     26.8824  20.0873  39.0511   Oco2      1 RES1   0.0000
  1969 O59     26.8824  24.4997  41.2055   Oco2      1 RES1   0.0000
  1970 O65     33.4171  32.2881  44.4568   Oco2      1 RES1   0.0000
  1971 O67     29.0047  30.1337  44.4568   Oco2      1 RES1   0.0000
  1972 O77     34.0538  21.5587  45.0133   Oco2      1 RES1   0.0000
  1973 O79     28.3680  23.0283  45.0133   Oco2      1 RES1   0.0000
  1974 O81     27.1785  34.0538  39.3935   Oco2      1 RES1   0.0000
  1975 O82     35.2433  34.0538  40.8631   Oco2      1 RES1   0.0000
  1976 O83     27.1785  28.3680  40.8631   Oco2      1 RES1   0.0000
  1977 O84     35.2433  28.3680  39.3935   Oco2      1 RES1   0.0000
  1978 O87     30.4761  26.3259  42.9712   Oco2      1 RES1   0.0000
  1979 O88     31.9457  18.2611  42.9712   Oco2      1 RES1   0.0000
  1980 O91     25.1364  30.4761  44.1607   Oco2      1 RES1   0.0000
  1981 O92     25.1364  31.9457  36.0959   Oco2      1 RES1   0.0000
  1982 C1      20.6955  30.1248  36.0976   C.2       1 RES1   0.0000
  1983 C2      23.8915  32.2970  36.0976   C.2       1 RES1   0.0000
  1984 C3      23.8915  30.1248  44.1590   C.2       1 RES1   0.0000
  1985 C4      20.6955  32.2970  44.1590   C.2       1 RES1   0.0000
  1986 C9      30.1248  18.2628  38.5303   C.2       1 RES1   0.0000
  1987 C10     32.2970  18.2628  41.7263   C.2       1 RES1   0.0000
  1988 C11     30.1248  26.3242  41.7263   C.2       1 RES1   0.0000
  1989 C12     32.2970  26.3242  38.5303   C.2       1 RES1   0.0000
  1990 C15     29.6129  23.3796  45.0150   C.2       1 RES1   0.0000
  1991 C16     32.8089  21.2074  45.0150   C.2       1 RES1   0.0000
  1992 C17     35.2416  32.8089  41.2144   C.2       1 RES1   0.0000
  1993 C18     35.2416  29.6129  39.0422   C.2       1 RES1   0.0000
  1994 C19     27.1802  29.6129  41.2144   C.2       1 RES1   0.0000
  1995 C20     27.1802  32.8089  39.0422   C.2       1 RES1   0.0000
  1996 C25     21.6550  31.3090  36.1030   C.2       1 RES1   0.0000
  1997 C26     22.9320  31.1128  36.1030   C.2       1 RES1   0.0000
  1998 C27     22.9320  31.3090  44.1536   C.2       1 RES1   0.0000
  1999 C28     21.6550  31.1128  44.1536   C.2       1 RES1   0.0000
  2000 C33     31.3090  18.2682  39.4898   C.2       1 RES1   0.0000
  2001 C34     31.1128  18.2682  40.7668   C.2       1 RES1   0.0000
  2002 C35     31.3090  26.3188  40.7668   C.2       1 RES1   0.0000
  2003 C36     31.1128  26.3188  39.4898   C.2       1 RES1   0.0000
  2004 C39     30.5724  22.1954  45.0204   C.2       1 RES1   0.0000
  2005 C40     31.8494  22.3916  45.0204   C.2       1 RES1   0.0000
  2006 C41     35.2362  31.8494  40.0302   C.2       1 RES1   0.0000
  2007 C42     35.2362  30.5724  40.2264   C.2       1 RES1   0.0000
  2008 C43     27.1856  30.5724  40.0302   C.2       1 RES1   0.0000
  2009 C44     27.1856  31.8494  40.2264   C.2       1 RES1   0.0000
  2010 H1      21.3215  32.1775  36.1048   H         1 RES1   0.0000
  2011 H2      23.2655  30.2443  36.1048   H         1 RES1   0.0000
  2012 H3      23.2655  32.1775  44.1518   H         1 RES1   0.0000
  2013 H4      21.3215  30.2443  44.1518   H         1 RES1   0.0000
  2014 H9      32.1775  18.2700  39.1563   H         1 RES1   0.0000
  2015 H10     30.2443  18.2700  41.1003   H         1 RES1   0.0000
  2016 H11     32.1775  26.3170  41.1003   H         1 RES1   0.0000
  2017 H12     30.2443  26.3170  39.1563   H         1 RES1   0.0000
  2018 H15     30.2389  21.3269  45.0222   H         1 RES1   0.0000
  2019 H16     32.1829  23.2601  45.0222   H         1 RES1   0.0000
  2020 H17     35.2344  32.1829  39.1617   H         1 RES1   0.0000
  2021 H18     35.2344  30.2389  41.0949   H         1 RES1   0.0000
  2022 H19     27.1874  30.2389  39.1617   H         1 RES1   0.0000
  2023 H20     27.1874  32.1829  41.0949   H         1 RES1   0.0000
  2024 C49     21.2341  23.8951  35.6696   C.2       1 RES1   0.0000
  2025 C50     23.3529  20.6919  35.6696   C.2       1 RES1   0.0000
  2026 C51     23.3529  23.8951  44.5870   C.2       1 RES1   0.0000
  2027 C52     21.2341  20.6919  44.5870   C.2       1 RES1   0.0000
  2028 C53     17.8348  21.2341  41.7299   C.2       1 RES1   0.0000
  2029 C54     17.8348  23.3529  38.5267   C.2       1 RES1   0.0000
  2030 C55     26.7522  23.3529  41.7299   C.2       1 RES1   0.0000
  2031 C56     26.7522  21.2341  38.5267   C.2       1 RES1   0.0000
  2032 C57     23.8951  17.8348  39.0689   C.2       1 RES1   0.0000
  2033 C58     20.6919  17.8348  41.1877   C.2       1 RES1   0.0000
  2034 C59     23.8951  26.7522  41.1877   C.2       1 RES1   0.0000
  2035 C60     20.6919  26.7522  39.0689   C.2       1 RES1   0.0000
  2036 C63     30.1515  29.6093  44.5870   C.2       1 RES1   0.0000
  2037 C64     32.2703  32.8125  44.5870   C.2       1 RES1   0.0000
  2038 C73     22.4130  22.9445  35.6714   C.2       1 RES1   0.0000
  2039 C74     22.1740  21.6425  35.6714   C.2       1 RES1   0.0000
  2040 C75     22.1740  22.9445  44.5852   C.2       1 RES1   0.0000
  2041 C76     22.4130  21.6425  44.5852   C.2       1 RES1   0.0000
  2042 C77     17.8366  22.4130  40.7793   C.2       1 RES1   0.0000
  2043 C78     17.8366  22.1740  39.4773   C.2       1 RES1   0.0000
  2044 C79     26.7504  22.1740  40.7793   C.2       1 RES1   0.0000
  2045 C80     26.7504  22.4130  39.4773   C.2       1 RES1   0.0000
  2046 C81     22.9445  17.8366  40.2478   C.2       1 RES1   0.0000
  2047 C82     21.6425  17.8366  40.0088   C.2       1 RES1   0.0000
  2048 C83     22.9445  26.7504  40.0088   C.2       1 RES1   0.0000
  2049 C84     21.6425  26.7504  40.2478   C.2       1 RES1   0.0000
  2050 C87     31.3304  30.5599  44.5888   C.2       1 RES1   0.0000
  2051 C88     31.0914  31.8619  44.5888   C.2       1 RES1   0.0000
  2052 H25     23.2851  23.2673  35.6714   H         1 RES1   0.0000
  2053 H26     21.3019  21.3197  35.6714   H         1 RES1   0.0000
  2054 H27     21.3019  23.2673  44.5852   H         1 RES1   0.0000
  2055 H28     23.2851  21.3197  44.5852   H         1 RES1   0.0000
  2056 H29     17.8366  23.2851  41.1021   H         1 RES1   0.0000
  2057 H30     17.8366  21.3019  39.1545   H         1 RES1   0.0000
  2058 H31     26.7504  21.3019  41.1021   H         1 RES1   0.0000
  2059 H32     26.7504  23.2851  39.1545   H         1 RES1   0.0000
  2060 H33     23.2673  17.8366  41.1199   H         1 RES1   0.0000
  2061 H34     21.3197  17.8366  39.1367   H         1 RES1   0.0000
  2062 H35     23.2673  26.7504  39.1367   H         1 RES1   0.0000
  2063 H36     21.3197  26.7504  41.1199   H         1 RES1   0.0000
  2064 H39     32.2025  30.2371  44.5888   H         1 RES1   0.0000
  2065 H40     30.2193  32.1847  44.5888   H         1 RES1   0.0000
  2066 O99     25.3878  28.3877  45.7409   O3        1 RES1   0.0000
  2067 O101    34.5157  19.1992  46.2225   O3        1 RES1   0.0000
  2068 O103    27.9061  25.3878  46.2225   O3        1 RES1   0.0000
  2069 O105    28.3877  34.5157  37.0340   O3        1 RES1   0.0000
  2070 O106    34.0341  34.5157  43.2226   O3        1 RES1   0.0000
  2071 O107    28.3877  27.9061  43.2226   O3        1 RES1   0.0000
  2072 O111    28.1166  25.1167  43.4331   O3        1 RES1   0.0000
  2073 O112    34.3052  19.4703  43.4331   O3        1 RES1   0.0000
  2074 O115    25.5983  28.1166  42.9515   O3        1 RES1   0.0000
  2075 O116    25.5983  34.3052  37.3051   O3        1 RES1   0.0000
  2076 O119    25.1167  25.5983  45.9514   O3        1 RES1   0.0000
  2077 O155    25.3522  25.3522  43.1870   O3        1 RES1   0.0000
  2078 O159    28.1522  28.1522  45.9870   O3        1 RES1   0.0000
  2079 O160    34.2696  34.2696  45.9870   O3        1 RES1   0.0000
  2080 Zr1     38.1281  26.9507  35.8815   Zr        1 RES1   0.0000
  2081 Zr4     38.1281  35.4711  44.3751   Zr        1 RES1   0.0000
  2082 Zr5     35.8815  20.2933  44.7855   Zr        1 RES1   0.0000
  2083 Zr9     26.9507  35.8815  38.1281   Zr        1 RES1   0.0000
  2084 Zr10    35.4711  35.8815  42.1285   Zr        1 RES1   0.0000
  2085 Zr16    33.2111  35.8681  44.7989   Zr        1 RES1   0.0000
  2086 Zr22    35.8681  35.4577  47.0455   Zr        1 RES1   0.0000
  2087 O2      23.0247  37.3015  35.8123   Oco2      1 RES1   0.0000
  2088 O4      21.5623  37.3015  44.4443   Oco2      1 RES1   0.0000
  2089 O10     37.3015  17.9775  40.8595   Oco2      1 RES1   0.0000
  2090 O12     37.3015  26.6095  39.3971   Oco2      1 RES1   0.0000
  2091 O50     23.3707  35.5394  37.9221   Oco2      1 RES1   0.0000
  2092 O52     21.2163  35.5394  42.3345   Oco2      1 RES1   0.0000
  2093 O58     35.5394  20.0873  41.2055   Oco2      1 RES1   0.0000
  2094 O60     35.5394  24.4997  39.0511   Oco2      1 RES1   0.0000
  2095 O89     37.2854  31.9457  44.1607   Oco2      1 RES1   0.0000
  2096 O90     37.2854  30.4761  36.0959   Oco2      1 RES1   0.0000
  2097 O97     37.0340  28.3877  34.5157   O3        1 RES1   0.0000
  2098 O100    37.0340  34.0341  45.7409   O3        1 RES1   0.0000
  2099 O113    36.8235  34.3052  42.9515   O3        1 RES1   0.0000
  2100 O114    36.8235  28.1166  37.3051   O3        1 RES1   0.0000
  2101 O118    19.4703  36.8235  45.9514   O3        1 RES1   0.0000
  2102 O120    19.4703  25.5983  34.3052   O3        1 RES1   0.0000
  2103 O153    37.0696  25.3522  37.0696   O3        1 RES1   0.0000
  2104 O154    25.3522  37.0696  37.0696   O3        1 RES1   0.0000
  2105 O156    37.0696  19.2348  43.1870   O3        1 RES1   0.0000
  2106 Zr3     24.2937  44.7855   8.7055   Zr        1 RES1   0.0000
  2107 Zr7     26.5403  42.1285   9.1159   Zr        1 RES1   0.0000
  2108 Zr11    26.9507  44.3751   6.4589   Zr        1 RES1   0.0000
  2109 Zr13    33.2111  44.3885  17.6229   Zr        1 RES1   0.0000
  2110 Zr15    29.2107  44.3885   9.1293   Zr        1 RES1   0.0000
  2111 Zr19    26.9641  47.0455   8.7189   Zr        1 RES1   0.0000
  2112 Zr23    26.5537  44.7989  11.3759   Zr        1 RES1   0.0000
  2113 O3      23.0247  42.9551   8.7747   Oco2      1 RES1   0.0000
  2114 O23     28.3841  44.7297  12.6449   Oco2      1 RES1   0.0000
  2115 O24     34.0377  44.7297  14.1073   Oco2      1 RES1   0.0000
  2116 O29     18.2735  39.0653  11.1396   Oco2      1 RES1   0.0000
  2117 O30     18.2735  41.1913  15.6126   Oco2      1 RES1   0.0000
  2118 O31     26.3135  41.1913  11.1396   Oco2      1 RES1   0.0000
  2119 O32     26.3135  39.0653  15.6126   Oco2      1 RES1   0.0000
  2120 O37     32.2739  42.3648  17.3961   Oco2      1 RES1   0.0000
  2121 O38     30.1479  37.8918  17.3961   Oco2      1 RES1   0.0000
  2122 O39     30.1479  42.3648   9.3561   Oco2      1 RES1   0.0000
  2123 O40     32.2739  37.8918   9.3561   Oco2      1 RES1   0.0000
  2124 O47     24.5300  45.0257  12.3131   Oco2      1 RES1   0.0000
  2125 O48     20.0570  45.0257  14.4391   Oco2      1 RES1   0.0000
  2126 O53     20.0873  39.0511   9.0476   Oco2      1 RES1   0.0000
  2127 O55     24.4997  41.2055   9.0476   Oco2      1 RES1   0.0000
  2128 O61     32.2881  44.4568  15.5823   Oco2      1 RES1   0.0000
  2129 O63     30.1337  44.4568  11.1699   Oco2      1 RES1   0.0000
  2130 O73     21.5587  45.0133  16.2190   Oco2      1 RES1   0.0000
  2131 O75     23.0283  45.0133  10.5332   Oco2      1 RES1   0.0000
  2132 O77     34.0538  39.3935   9.3437   Oco2      1 RES1   0.0000
  2133 O78     34.0538  40.8631  17.4085   Oco2      1 RES1   0.0000
  2134 O79     28.3680  40.8631   9.3437   Oco2      1 RES1   0.0000
  2135 O80     28.3680  39.3935  17.4085   Oco2      1 RES1   0.0000
  2136 O95     26.3259  42.9712  12.6413   Oco2      1 RES1   0.0000
  2137 O96     18.2611  42.9712  14.1109   Oco2      1 RES1   0.0000
  2138 C5      18.2628  38.5303  12.2900   C.2       1 RES1   0.0000
  2139 C6      18.2628  41.7263  14.4622   C.2       1 RES1   0.0000
  2140 C7      26.3242  41.7263  12.2900   C.2       1 RES1   0.0000
  2141 C8      26.3242  38.5303  14.4622   C.2       1 RES1   0.0000
  2142 C13     32.8089  41.2144  17.4068   C.2       1 RES1   0.0000
  2143 C14     29.6129  39.0422  17.4068   C.2       1 RES1   0.0000
  2144 C15     29.6129  41.2144   9.3454   C.2       1 RES1   0.0000
  2145 C16     32.8089  39.0422   9.3454   C.2       1 RES1   0.0000
  2146 C23     23.3796  45.0150  11.7781   C.2       1 RES1   0.0000
  2147 C24     21.2074  45.0150  14.9741   C.2       1 RES1   0.0000
  2148 C29     18.2682  39.4898  13.4742   C.2       1 RES1   0.0000
  2149 C30     18.2682  40.7668  13.2780   C.2       1 RES1   0.0000
  2150 C31     26.3188  40.7668  13.4742   C.2       1 RES1   0.0000
  2151 C32     26.3188  39.4898  13.2780   C.2       1 RES1   0.0000
  2152 C37     31.8494  40.0302  17.4014   C.2       1 RES1   0.0000
  2153 C38     30.5724  40.2264  17.4014   C.2       1 RES1   0.0000
  2154 C39     30.5724  40.0302   9.3508   C.2       1 RES1   0.0000
  2155 C40     31.8494  40.2264   9.3508   C.2       1 RES1   0.0000
  2156 C47     22.1954  45.0204  12.7376   C.2       1 RES1   0.0000
  2157 C48     22.3916  45.0204  14.0146   C.2       1 RES1   0.0000
  2158 H5      18.2700  39.1563  14.3427   H         1 RES1   0.0000
  2159 H6      18.2700  41.1003  12.4095   H         1 RES1   0.0000
  2160 H7      26.3170  41.1003  14.3427   H         1 RES1   0.0000
  2161 H8      26.3170  39.1563  12.4095   H         1 RES1   0.0000
  2162 H13     32.1829  39.1617  17.3996   H         1 RES1   0.0000
  2163 H14     30.2389  41.0949  17.3996   H         1 RES1   0.0000
  2164 H15     30.2389  39.1617   9.3526   H         1 RES1   0.0000
  2165 H16     32.1829  41.0949   9.3526   H         1 RES1   0.0000
  2166 H23     21.3269  45.0222  12.4041   H         1 RES1   0.0000
  2167 H24     23.2601  45.0222  14.3481   H         1 RES1   0.0000
  2168 C51     23.3529  41.7299   8.9174   C.2       1 RES1   0.0000
  2169 C52     21.2341  38.5267   8.9174   C.2       1 RES1   0.0000
  2170 C71     29.6093  44.5870  12.3167   C.2       1 RES1   0.0000
  2171 C72     32.8125  44.5870  14.4355   C.2       1 RES1   0.0000
  2172 C75     22.1740  40.7793   8.9156   C.2       1 RES1   0.0000
  2173 C76     22.4130  39.4773   8.9156   C.2       1 RES1   0.0000
  2174 C95     30.5599  44.5888  13.4956   C.2       1 RES1   0.0000
  2175 C96     31.8619  44.5888  13.2566   C.2       1 RES1   0.0000
  2176 H27     21.3019  41.1021   8.9156   H         1 RES1   0.0000
  2177 H28     23.2851  39.1545   8.9156   H         1 RES1   0.0000
  2178 H47     30.2371  44.5888  14.3677   H         1 RES1   0.0000
  2179 H48     32.1847  44.5888  12.3845   H         1 RES1   0.0000
  2180 O99     25.3878  46.2225  10.0713   O3        1 RES1   0.0000
  2181 O101    34.5157  37.0340  10.5529   O3        1 RES1   0.0000
  2182 O102    34.5157  43.2226  16.1993   O3        1 RES1   0.0000
  2183 O103    27.9061  43.2226  10.5529   O3        1 RES1   0.0000
  2184 O107    28.3877  45.7409   7.5530   O3        1 RES1   0.0000
  2185 O111    28.1166  42.9515   7.7635   O3        1 RES1   0.0000
  2186 O112    34.3052  37.3051   7.7635   O3        1 RES1   0.0000
  2187 O115    25.5983  45.9514   7.2819   O3        1 RES1   0.0000
  2188 O119    25.1167  43.4331  10.2818   O3        1 RES1   0.0000
  2189 O155    25.3522  43.1870   7.5174   O3        1 RES1   0.0000
  2190 O157    34.2696  45.9870  16.4348   O3        1 RES1   0.0000
  2191 O159    28.1522  45.9870  10.3174   O3        1 RES1   0.0000
  2192 Zr5     35.8815  38.1281   9.1159   Zr        1 RES1   0.0000
  2193 Zr6     35.8815  42.1285  17.6363   Zr        1 RES1   0.0000
  2194 Zr12    35.4711  44.3751  20.2933   Zr        1 RES1   0.0000
  2195 Zr18    35.4577  47.0455  18.0333   Zr        1 RES1   0.0000
  2196 Zr24    35.8681  44.7989  15.3763   Zr        1 RES1   0.0000
  2197 O6      17.9775  40.8595  19.4667   Oco2      1 RES1   0.0000
  2198 O8      26.6095  39.3971  19.4667   Oco2      1 RES1   0.0000
  2199 O54     20.0873  41.2055  17.7046   Oco2      1 RES1   0.0000
  2200 O56     24.4997  39.0511  17.7046   Oco2      1 RES1   0.0000
  2201 O85     31.9457  44.1607  19.4506   Oco2      1 RES1   0.0000
  2202 O86     30.4761  36.0959  19.4506   Oco2      1 RES1   0.0000
  2203 O108    34.0341  45.7409  19.1992   O3        1 RES1   0.0000
  2204 O109    34.3052  42.9515  18.9887   O3        1 RES1   0.0000
  2205 O110    28.1166  37.3051  18.9887   O3        1 RES1   0.0000
  2206 O156    37.0696  37.0696   7.5174   O3        1 RES1   0.0000
  2207 Zr3     24.2937  44.7855  26.5403   Zr        1 RES1   0.0000
  2208 Zr7     26.5403  42.1285  26.9507   Zr        1 RES1   0.0000
  2209 Zr11    26.9507  44.3751  24.2937   Zr        1 RES1   0.0000
  2210 Zr13    33.2111  44.3885  35.4577   Zr        1 RES1   0.0000
  2211 Zr15    29.2107  44.3885  26.9641   Zr        1 RES1   0.0000
  2212 Zr19    26.9641  47.0455  26.5537   Zr        1 RES1   0.0000
  2213 Zr23    26.5537  44.7989  29.2107   Zr        1 RES1   0.0000
  2214 O1      21.5623  42.9551  17.9775   Oco2      1 RES1   0.0000
  2215 O3      23.0247  42.9551  26.6095   Oco2      1 RES1   0.0000
  2216 O5      17.9775  39.3971  25.1203   Oco2      1 RES1   0.0000
  2217 O7      26.6095  40.8595  25.1203   Oco2      1 RES1   0.0000
  2218 O9      25.1203  35.8123  21.5623   Oco2      1 RES1   0.0000
  2219 O11     25.1203  44.4443  23.0247   Oco2      1 RES1   0.0000
  2220 O23     28.3841  44.7297  30.4797   Oco2      1 RES1   0.0000
  2221 O24     34.0377  44.7297  31.9421   Oco2      1 RES1   0.0000
  2222 O29     18.2735  39.0653  28.9744   Oco2      1 RES1   0.0000
  2223 O30     18.2735  41.1913  33.4474   Oco2      1 RES1   0.0000
  2224 O31     26.3135  41.1913  28.9744   Oco2      1 RES1   0.0000
  2225 O32     26.3135  39.0653  33.4474   Oco2      1 RES1   0.0000
  2226 O33     28.9744  36.1083  21.2305   Oco2      1 RES1   0.0000
  2227 O34     33.4474  36.1083  23.3565   Oco2      1 RES1   0.0000
  2228 O35     28.9744  44.1483  23.3565   Oco2      1 RES1   0.0000
  2229 O36     33.4474  44.1483  21.2305   Oco2      1 RES1   0.0000
  2230 O37     32.2739  42.3648  35.2309   Oco2      1 RES1   0.0000
  2231 O38     30.1479  37.8918  35.2309   Oco2      1 RES1   0.0000
  2232 O39     30.1479  42.3648  27.1909   Oco2      1 RES1   0.0000
  2233 O40     32.2739  37.8918  27.1909   Oco2      1 RES1   0.0000
  2234 O47     24.5300  45.0257  30.1479   Oco2      1 RES1   0.0000
  2235 O48     20.0570  45.0257  32.2739   Oco2      1 RES1   0.0000
  2236 O49     21.2163  44.7172  20.0873   Oco2      1 RES1   0.0000
  2237 O51     23.3707  44.7172  24.4997   Oco2      1 RES1   0.0000
  2238 O53     20.0873  39.0511  26.8824   Oco2      1 RES1   0.0000
  2239 O55     24.4997  41.2055  26.8824   Oco2      1 RES1   0.0000
  2240 O57     26.8824  37.9221  21.2163   Oco2      1 RES1   0.0000
  2241 O59     26.8824  42.3345  23.3707   Oco2      1 RES1   0.0000
  2242 O61     32.2881  44.4568  33.4171   Oco2      1 RES1   0.0000
  2243 O63     30.1337  44.4568  29.0047   Oco2      1 RES1   0.0000
  2244 O73     21.5587  45.0133  34.0538   Oco2      1 RES1   0.0000
  2245 O75     23.0283  45.0133  28.3680   Oco2      1 RES1   0.0000
  2246 O77     34.0538  39.3935  27.1785   Oco2      1 RES1   0.0000
  2247 O78     34.0538  40.8631  35.2433   Oco2      1 RES1   0.0000
  2248 O79     28.3680  40.8631  27.1785   Oco2      1 RES1   0.0000
  2249 O80     28.3680  39.3935  35.2433   Oco2      1 RES1   0.0000
  2250 O87     30.4761  44.1607  25.1364   Oco2      1 RES1   0.0000
  2251 O88     31.9457  36.0959  25.1364   Oco2      1 RES1   0.0000
  2252 O95     26.3259  42.9712  30.4761   Oco2      1 RES1   0.0000
  2253 O96     18.2611  42.9712  31.9457   Oco2      1 RES1   0.0000
  2254 C5      18.2628  38.5303  30.1248   C.2       1 RES1   0.0000
  2255 C6      18.2628  41.7263  32.2970   C.2       1 RES1   0.0000
  2256 C7      26.3242  41.7263  30.1248   C.2       1 RES1   0.0000
  2257 C8      26.3242  38.5303  32.2970   C.2       1 RES1   0.0000
  2258 C9      30.1248  36.0976  20.6955   C.2       1 RES1   0.0000
  2259 C10     32.2970  36.0976  23.8915   C.2       1 RES1   0.0000
  2260 C11     30.1248  44.1590  23.8915   C.2       1 RES1   0.0000
  2261 C12     32.2970  44.1590  20.6955   C.2       1 RES1   0.0000
  2262 C13     32.8089  41.2144  35.2416   C.2       1 RES1   0.0000
  2263 C14     29.6129  39.0422  35.2416   C.2       1 RES1   0.0000
  2264 C15     29.6129  41.2144  27.1802   C.2       1 RES1   0.0000
  2265 C16     32.8089  39.0422  27.1802   C.2       1 RES1   0.0000
  2266 C23     23.3796  45.0150  29.6129   C.2       1 RES1   0.0000
  2267 C24     21.2074  45.0150  32.8089   C.2       1 RES1   0.0000
  2268 C29     18.2682  39.4898  31.3090   C.2       1 RES1   0.0000
  2269 C30     18.2682  40.7668  31.1128   C.2       1 RES1   0.0000
  2270 C31     26.3188  40.7668  31.3090   C.2       1 RES1   0.0000
  2271 C32     26.3188  39.4898  31.1128   C.2       1 RES1   0.0000
  2272 C33     31.3090  36.1030  21.6550   C.2       1 RES1   0.0000
  2273 C34     31.1128  36.1030  22.9320   C.2       1 RES1   0.0000
  2274 C35     31.3090  44.1536  22.9320   C.2       1 RES1   0.0000
  2275 C36     31.1128  44.1536  21.6550   C.2       1 RES1   0.0000
  2276 C37     31.8494  40.0302  35.2362   C.2       1 RES1   0.0000
  2277 C38     30.5724  40.2264  35.2362   C.2       1 RES1   0.0000
  2278 C39     30.5724  40.0302  27.1856   C.2       1 RES1   0.0000
  2279 C40     31.8494  40.2264  27.1856   C.2       1 RES1   0.0000
  2280 C47     22.1954  45.0204  30.5724   C.2       1 RES1   0.0000
  2281 C48     22.3916  45.0204  31.8494   C.2       1 RES1   0.0000
  2282 H5      18.2700  39.1563  32.1775   H         1 RES1   0.0000
  2283 H6      18.2700  41.1003  30.2443   H         1 RES1   0.0000
  2284 H7      26.3170  41.1003  32.1775   H         1 RES1   0.0000
  2285 H8      26.3170  39.1563  30.2443   H         1 RES1   0.0000
  2286 H9      32.1775  36.1048  21.3215   H         1 RES1   0.0000
  2287 H10     30.2443  36.1048  23.2655   H         1 RES1   0.0000
  2288 H11     32.1775  44.1518  23.2655   H         1 RES1   0.0000
  2289 H12     30.2443  44.1518  21.3215   H         1 RES1   0.0000
  2290 H13     32.1829  39.1617  35.2344   H         1 RES1   0.0000
  2291 H14     30.2389  41.0949  35.2344   H         1 RES1   0.0000
  2292 H15     30.2389  39.1617  27.1874   H         1 RES1   0.0000
  2293 H16     32.1829  41.0949  27.1874   H         1 RES1   0.0000
  2294 H23     21.3269  45.0222  30.2389   H         1 RES1   0.0000
  2295 H24     23.2601  45.0222  32.1829   H         1 RES1   0.0000
  2296 C49     21.2341  41.7299  17.8348   C.2       1 RES1   0.0000
  2297 C50     23.3529  38.5267  17.8348   C.2       1 RES1   0.0000
  2298 C51     23.3529  41.7299  26.7522   C.2       1 RES1   0.0000
  2299 C52     21.2341  38.5267  26.7522   C.2       1 RES1   0.0000
  2300 C53     17.8348  39.0689  23.8951   C.2       1 RES1   0.0000
  2301 C54     17.8348  41.1877  20.6919   C.2       1 RES1   0.0000
  2302 C55     26.7522  41.1877  23.8951   C.2       1 RES1   0.0000
  2303 C56     26.7522  39.0689  20.6919   C.2       1 RES1   0.0000
  2304 C57     23.8951  35.6696  21.2341   C.2       1 RES1   0.0000
  2305 C58     20.6919  35.6696  23.3529   C.2       1 RES1   0.0000
  2306 C59     23.8951  44.5870  23.3529   C.2       1 RES1   0.0000
  2307 C60     20.6919  44.5870  21.2341   C.2       1 RES1   0.0000
  2308 C71     29.6093  44.5870  30.1515   C.2       1 RES1   0.0000
  2309 C72     32.8125  44.5870  32.2703   C.2       1 RES1   0.0000
  2310 C73     22.4130  40.7793  17.8366   C.2       1 RES1   0.0000
  2311 C74     22.1740  39.4773  17.8366   C.2       1 RES1   0.0000
  2312 C75     22.1740  40.7793  26.7504   C.2       1 RES1   0.0000
  2313 C76     22.4130  39.4773  26.7504   C.2       1 RES1   0.0000
  2314 C77     17.8366  40.2478  22.9445   C.2       1 RES1   0.0000
  2315 C78     17.8366  40.0088  21.6425   C.2       1 RES1   0.0000
  2316 C79     26.7504  40.0088  22.9445   C.2       1 RES1   0.0000
  2317 C80     26.7504  40.2478  21.6425   C.2       1 RES1   0.0000
  2318 C81     22.9445  35.6714  22.4130   C.2       1 RES1   0.0000
  2319 C82     21.6425  35.6714  22.1740   C.2       1 RES1   0.0000
  2320 C83     22.9445  44.5852  22.1740   C.2       1 RES1   0.0000
  2321 C84     21.6425  44.5852  22.4130   C.2       1 RES1   0.0000
  2322 C95     30.5599  44.5888  31.3304   C.2       1 RES1   0.0000
  2323 C96     31.8619  44.5888  31.0914   C.2       1 RES1   0.0000
  2324 H25     23.2851  41.1021  17.8366   H         1 RES1   0.0000
  2325 H26     21.3019  39.1545  17.8366   H         1 RES1   0.0000
  2326 H27     21.3019  41.1021  26.7504   H         1 RES1   0.0000
  2327 H28     23.2851  39.1545  26.7504   H         1 RES1   0.0000
  2328 H29     17.8366  41.1199  23.2673   H         1 RES1   0.0000
  2329 H30     17.8366  39.1367  21.3197   H         1 RES1   0.0000
  2330 H31     26.7504  39.1367  23.2673   H         1 RES1   0.0000
  2331 H32     26.7504  41.1199  21.3197   H         1 RES1   0.0000
  2332 H33     23.2673  35.6714  23.2851   H         1 RES1   0.0000
  2333 H34     21.3197  35.6714  21.3019   H         1 RES1   0.0000
  2334 H35     23.2673  44.5852  21.3019   H         1 RES1   0.0000
  2335 H36     21.3197  44.5852  23.2851   H         1 RES1   0.0000
  2336 H47     30.2371  44.5888  32.2025   H         1 RES1   0.0000
  2337 H48     32.1847  44.5888  30.2193   H         1 RES1   0.0000
  2338 O99     25.3878  46.2225  27.9061   O3        1 RES1   0.0000
  2339 O101    34.5157  37.0340  28.3877   O3        1 RES1   0.0000
  2340 O102    34.5157  43.2226  34.0341   O3        1 RES1   0.0000
  2341 O103    27.9061  43.2226  28.3877   O3        1 RES1   0.0000
  2342 O107    28.3877  45.7409  25.3878   O3        1 RES1   0.0000
  2343 O111    28.1166  42.9515  25.5983   O3        1 RES1   0.0000
  2344 O112    34.3052  37.3051  25.5983   O3        1 RES1   0.0000
  2345 O115    25.5983  45.9514  25.1167   O3        1 RES1   0.0000
  2346 O119    25.1167  43.4331  28.1166   O3        1 RES1   0.0000
  2347 O155    25.3522  43.1870  25.3522   O3        1 RES1   0.0000
  2348 O157    34.2696  45.9870  34.2696   O3        1 RES1   0.0000
  2349 O159    28.1522  45.9870  28.1522   O3        1 RES1   0.0000
  2350 Zr1     38.1281  44.7855  18.0467   Zr        1 RES1   0.0000
  2351 Zr5     35.8815  38.1281  26.9507   Zr        1 RES1   0.0000
  2352 Zr6     35.8815  42.1285  35.4711   Zr        1 RES1   0.0000
  2353 Zr12    35.4711  44.3751  38.1281   Zr        1 RES1   0.0000
  2354 Zr18    35.4577  47.0455  35.8681   Zr        1 RES1   0.0000
  2355 Zr24    35.8681  44.7989  33.2111   Zr        1 RES1   0.0000
  2356 O6      17.9775  40.8595  37.3015   Oco2      1 RES1   0.0000
  2357 O8      26.6095  39.3971  37.3015   Oco2      1 RES1   0.0000
  2358 O10     37.3015  35.8123  23.0247   Oco2      1 RES1   0.0000
  2359 O12     37.3015  44.4443  21.5623   Oco2      1 RES1   0.0000
  2360 O54     20.0873  41.2055  35.5394   Oco2      1 RES1   0.0000
  2361 O56     24.4997  39.0511  35.5394   Oco2      1 RES1   0.0000
  2362 O58     35.5394  37.9221  23.3707   Oco2      1 RES1   0.0000
  2363 O60     35.5394  42.3345  21.2163   Oco2      1 RES1   0.0000
  2364 O85     31.9457  44.1607  37.2854   Oco2      1 RES1   0.0000
  2365 O86     30.4761  36.0959  37.2854   Oco2      1 RES1   0.0000
  2366 O97     37.0340  46.2225  16.6809   O3        1 RES1   0.0000
  2367 O108    34.0341  45.7409  37.0340   O3        1 RES1   0.0000
  2368 O109    34.3052  42.9515  36.8235   O3        1 RES1   0.0000
  2369 O110    28.1166  37.3051  36.8235   O3        1 RES1   0.0000
  2370 O114    36.8235  45.9514  19.4703   O3        1 RES1   0.0000
  2371 O120    19.4703  43.4331  16.4704   O3        1 RES1   0.0000
  2372 O153    37.0696  43.1870  19.2348   O3        1 RES1   0.0000
  2373 O156    37.0696  37.0696  25.3522   O3        1 RES1   0.0000
  2374 Zr3     24.2937  44.7855  44.3751   Zr        1 RES1   0.0000
  2375 Zr7     26.5403  42.1285  44.7855   Zr        1 RES1   0.0000
  2376 Zr11    26.9507  44.3751  42.1285   Zr        1 RES1   0.0000
  2377 Zr15    29.2107  44.3885  44.7989   Zr        1 RES1   0.0000
  2378 Zr19    26.9641  47.0455  44.3885   Zr        1 RES1   0.0000
  2379 Zr23    26.5537  44.7989  47.0455   Zr        1 RES1   0.0000
  2380 O1      21.5623  42.9551  35.8123   Oco2      1 RES1   0.0000
  2381 O3      23.0247  42.9551  44.4443   Oco2      1 RES1   0.0000
  2382 O5      17.9775  39.3971  42.9551   Oco2      1 RES1   0.0000
  2383 O7      26.6095  40.8595  42.9551   Oco2      1 RES1   0.0000
  2384 O9      25.1203  35.8123  39.3971   Oco2      1 RES1   0.0000
  2385 O11     25.1203  44.4443  40.8595   Oco2      1 RES1   0.0000
  2386 O33     28.9744  36.1083  39.0653   Oco2      1 RES1   0.0000
  2387 O34     33.4474  36.1083  41.1913   Oco2      1 RES1   0.0000
  2388 O35     28.9744  44.1483  41.1913   Oco2      1 RES1   0.0000
  2389 O36     33.4474  44.1483  39.0653   Oco2      1 RES1   0.0000
  2390 O39     30.1479  42.3648  45.0257   Oco2      1 RES1   0.0000
  2391 O40     32.2739  37.8918  45.0257   Oco2      1 RES1   0.0000
  2392 O49     21.2163  44.7172  37.9221   Oco2      1 RES1   0.0000
  2393 O51     23.3707  44.7172  42.3345   Oco2      1 RES1   0.0000
  2394 O53     20.0873  39.0511  44.7172   Oco2      1 RES1   0.0000
  2395 O55     24.4997  41.2055  44.7172   Oco2      1 RES1   0.0000
  2396 O57     26.8824  37.9221  39.0511   Oco2      1 RES1   0.0000
  2397 O59     26.8824  42.3345  41.2055   Oco2      1 RES1   0.0000
  2398 O77     34.0538  39.3935  45.0133   Oco2      1 RES1   0.0000
  2399 O79     28.3680  40.8631  45.0133   Oco2      1 RES1   0.0000
  2400 O87     30.4761  44.1607  42.9712   Oco2      1 RES1   0.0000
  2401 O88     31.9457  36.0959  42.9712   Oco2      1 RES1   0.0000
  2402 C9      30.1248  36.0976  38.5303   C.2       1 RES1   0.0000
  2403 C10     32.2970  36.0976  41.7263   C.2       1 RES1   0.0000
  2404 C11     30.1248  44.1590  41.7263   C.2       1 RES1   0.0000
  2405 C12     32.2970  44.1590  38.5303   C.2       1 RES1   0.0000
  2406 C15     29.6129  41.2144  45.0150   C.2       1 RES1   0.0000
  2407 C16     32.8089  39.0422  45.0150   C.2       1 RES1   0.0000
  2408 C33     31.3090  36.1030  39.4898   C.2       1 RES1   0.0000
  2409 C34     31.1128  36.1030  40.7668   C.2       1 RES1   0.0000
  2410 C35     31.3090  44.1536  40.7668   C.2       1 RES1   0.0000
  2411 C36     31.1128  44.1536  39.4898   C.2       1 RES1   0.0000
  2412 C39     30.5724  40.0302  45.0204   C.2       1 RES1   0.0000
  2413 C40     31.8494  40.2264  45.0204   C.2       1 RES1   0.0000
  2414 H9      32.1775  36.1048  39.1563   H         1 RES1   0.0000
  2415 H10     30.2443  36.1048  41.1003   H         1 RES1   0.0000
  2416 H11     32.1775  44.1518  41.1003   H         1 RES1   0.0000
  2417 H12     30.2443  44.1518  39.1563   H         1 RES1   0.0000
  2418 H15     30.2389  39.1617  45.0222   H         1 RES1   0.0000
  2419 H16     32.1829  41.0949  45.0222   H         1 RES1   0.0000
  2420 C49     21.2341  41.7299  35.6696   C.2       1 RES1   0.0000
  2421 C50     23.3529  38.5267  35.6696   C.2       1 RES1   0.0000
  2422 C51     23.3529  41.7299  44.5870   C.2       1 RES1   0.0000
  2423 C52     21.2341  38.5267  44.5870   C.2       1 RES1   0.0000
  2424 C53     17.8348  39.0689  41.7299   C.2       1 RES1   0.0000
  2425 C54     17.8348  41.1877  38.5267   C.2       1 RES1   0.0000
  2426 C55     26.7522  41.1877  41.7299   C.2       1 RES1   0.0000
  2427 C56     26.7522  39.0689  38.5267   C.2       1 RES1   0.0000
  2428 C57     23.8951  35.6696  39.0689   C.2       1 RES1   0.0000
  2429 C58     20.6919  35.6696  41.1877   C.2       1 RES1   0.0000
  2430 C59     23.8951  44.5870  41.1877   C.2       1 RES1   0.0000
  2431 C60     20.6919  44.5870  39.0689   C.2       1 RES1   0.0000
  2432 C73     22.4130  40.7793  35.6714   C.2       1 RES1   0.0000
  2433 C74     22.1740  39.4773  35.6714   C.2       1 RES1   0.0000
  2434 C75     22.1740  40.7793  44.5852   C.2       1 RES1   0.0000
  2435 C76     22.4130  39.4773  44.5852   C.2       1 RES1   0.0000
  2436 C77     17.8366  40.2478  40.7793   C.2       1 RES1   0.0000
  2437 C78     17.8366  40.0088  39.4773   C.2       1 RES1   0.0000
  2438 C79     26.7504  40.0088  40.7793   C.2       1 RES1   0.0000
  2439 C80     26.7504  40.2478  39.4773   C.2       1 RES1   0.0000
  2440 C81     22.9445  35.6714  40.2478   C.2       1 RES1   0.0000
  2441 C82     21.6425  35.6714  40.0088   C.2       1 RES1   0.0000
  2442 C83     22.9445  44.5852  40.0088   C.2       1 RES1   0.0000
  2443 C84     21.6425  44.5852  40.2478   C.2       1 RES1   0.0000
  2444 H25     23.2851  41.1021  35.6714   H         1 RES1   0.0000
  2445 H26     21.3019  39.1545  35.6714   H         1 RES1   0.0000
  2446 H27     21.3019  41.1021  44.5852   H         1 RES1   0.0000
  2447 H28     23.2851  39.1545  44.5852   H         1 RES1   0.0000
  2448 H29     17.8366  41.1199  41.1021   H         1 RES1   0.0000
  2449 H30     17.8366  39.1367  39.1545   H         1 RES1   0.0000
  2450 H31     26.7504  39.1367  41.1021   H         1 RES1   0.0000
  2451 H32     26.7504  41.1199  39.1545   H         1 RES1   0.0000
  2452 H33     23.2673  35.6714  41.1199   H         1 RES1   0.0000
  2453 H34     21.3197  35.6714  39.1367   H         1 RES1   0.0000
  2454 H35     23.2673  44.5852  39.1367   H         1 RES1   0.0000
  2455 H36     21.3197  44.5852  41.1199   H         1 RES1   0.0000
  2456 O99     25.3878  46.2225  45.7409   O3        1 RES1   0.0000
  2457 O101    34.5157  37.0340  46.2225   O3        1 RES1   0.0000
  2458 O103    27.9061  43.2226  46.2225   O3        1 RES1   0.0000
  2459 O107    28.3877  45.7409  43.2226   O3        1 RES1   0.0000
  2460 O111    28.1166  42.9515  43.4331   O3        1 RES1   0.0000
  2461 O112    34.3052  37.3051  43.4331   O3        1 RES1   0.0000
  2462 O115    25.5983  45.9514  42.9515   O3        1 RES1   0.0000
  2463 O119    25.1167  43.4331  45.9514   O3        1 RES1   0.0000
  2464 O155    25.3522  43.1870  43.1870   O3        1 RES1   0.0000
  2465 O159    28.1522  45.9870  45.9870   O3        1 RES1   0.0000
  2466 Zr1     38.1281  44.7855  35.8815   Zr        1 RES1   0.0000
  2467 Zr5     35.8815  38.1281  44.7855   Zr        1 RES1   0.0000
  2468 O10     37.3015  35.8123  40.8595   Oco2      1 RES1   0.0000
  2469 O12     37.3015  44.4443  39.3971   Oco2      1 RES1   0.0000
  2470 O58     35.5394  37.9221  41.2055   Oco2      1 RES1   0.0000
  2471 O60     35.5394  42.3345  39.0511   Oco2      1 RES1   0.0000
  2472 O97     37.0340  46.2225  34.5157   O3        1 RES1   0.0000
  2473 O114    36.8235  45.9514  37.3051   O3        1 RES1   0.0000
  2474 O120    19.4703  43.4331  34.3052   O3        1 RES1   0.0000
  2475 O153    37.0696  43.1870  37.0696   O3        1 RES1   0.0000
  2476 O156    37.0696  37.0696  43.1870   O3        1 RES1   0.0000
  2477 Zr3     42.1285   9.1159   8.7055   Zr        1 RES1   0.0000
  2478 Zr7     44.3751   6.4589   9.1159   Zr        1 RES1   0.0000
  2479 Zr11    44.7855   8.7055   6.4589   Zr        1 RES1   0.0000
  2480 Zr15    47.0455   8.7189   9.1293   Zr        1 RES1   0.0000
  2481 Zr19    44.7989  11.3759   8.7189   Zr        1 RES1   0.0000
  2482 Zr21    44.3885  17.6229  15.3763   Zr        1 RES1   0.0000
  2483 Zr23    44.3885   9.1293  11.3759   Zr        1 RES1   0.0000
  2484 O19     44.7297  12.6449  10.5493   Oco2      1 RES1   0.0000
  2485 O20     44.7297  14.1073  16.2029   Oco2      1 RES1   0.0000
  2486 O27     41.1913  11.1396   8.4787   Oco2      1 RES1   0.0000
  2487 O28     39.0653  15.6126   8.4787   Oco2      1 RES1   0.0000
  2488 O45     42.3648  17.3961  14.4391   Oco2      1 RES1   0.0000
  2489 O46     37.8918  17.3961  12.3131   Oco2      1 RES1   0.0000
  2490 O47     42.3648   9.3561  12.3131   Oco2      1 RES1   0.0000
  2491 O48     37.8918   9.3561  14.4391   Oco2      1 RES1   0.0000
  2492 O69     44.4568  15.5823  14.4533   Oco2      1 RES1   0.0000
  2493 O71     44.4568  11.1699  12.2989   Oco2      1 RES1   0.0000
  2494 O73     39.3935   9.3437  16.2190   Oco2      1 RES1   0.0000
  2495 O74     40.8631  17.4085  16.2190   Oco2      1 RES1   0.0000
  2496 O75     40.8631   9.3437  10.5332   Oco2      1 RES1   0.0000
  2497 O76     39.3935  17.4085  10.5332   Oco2      1 RES1   0.0000
  2498 O91     42.9712  12.6413   8.4911   Oco2      1 RES1   0.0000
  2499 C3      41.7263  12.2900   8.4894   C.2       1 RES1   0.0000
  2500 C4      38.5303  14.4622   8.4894   C.2       1 RES1   0.0000
  2501 C21     41.2144  17.4068  14.9741   C.2       1 RES1   0.0000
  2502 C22     39.0422  17.4068  11.7781   C.2       1 RES1   0.0000
  2503 C23     41.2144   9.3454  11.7781   C.2       1 RES1   0.0000
  2504 C24     39.0422   9.3454  14.9741   C.2       1 RES1   0.0000
  2505 C27     40.7668  13.4742   8.4840   C.2       1 RES1   0.0000
  2506 C28     39.4898  13.2780   8.4840   C.2       1 RES1   0.0000
  2507 C45     40.0302  17.4014  14.0146   C.2       1 RES1   0.0000
  2508 C46     40.2264  17.4014  12.7376   C.2       1 RES1   0.0000
  2509 C47     40.0302   9.3508  12.7376   C.2       1 RES1   0.0000
  2510 C48     40.2264   9.3508  14.0146   C.2       1 RES1   0.0000
  2511 H3      41.1003  14.3427   8.4822   H         1 RES1   0.0000
  2512 H4      39.1563  12.4095   8.4822   H         1 RES1   0.0000
  2513 H21     39.1617  17.3996  14.3481   H         1 RES1   0.0000
  2514 H22     41.0949  17.3996  12.4041   H         1 RES1   0.0000
  2515 H23     39.1617   9.3526  12.4041   H         1 RES1   0.0000
  2516 H24     41.0949   9.3526  14.3481   H         1 RES1   0.0000
  2517 C67     44.5870  12.3167  11.7745   C.2       1 RES1   0.0000
  2518 C68     44.5870  14.4355  14.9777   C.2       1 RES1   0.0000
  2519 C91     44.5888  13.4956  12.7251   C.2       1 RES1   0.0000
  2520 C92     44.5888  13.2566  14.0271   C.2       1 RES1   0.0000
  2521 H43     44.5888  14.3677  12.4023   H         1 RES1   0.0000
  2522 H44     44.5888  12.3845  14.3499   H         1 RES1   0.0000
  2523 O98     43.2226  16.1993  16.6809   O3        1 RES1   0.0000
  2524 O99     43.2226  10.5529  10.0713   O3        1 RES1   0.0000
  2525 O103    45.7409   7.5530  10.5529   O3        1 RES1   0.0000
  2526 O107    46.2225  10.0713   7.5530   O3        1 RES1   0.0000
  2527 O111    45.9514   7.2819   7.7635   O3        1 RES1   0.0000
  2528 O115    43.4331  10.2818   7.2819   O3        1 RES1   0.0000
  2529 O119    42.9515   7.7635  10.2818   O3        1 RES1   0.0000
  2530 O155    43.1870   7.5174   7.5174   O3        1 RES1   0.0000
  2531 O158    45.9870  16.4348  16.4348   O3        1 RES1   0.0000
  2532 O159    45.9870  10.3174  10.3174   O3        1 RES1   0.0000
  2533 Zr2     42.1285  17.6363  18.0467   Zr        1 RES1   0.0000
  2534 Zr8     44.3751  20.2933  17.6363   Zr        1 RES1   0.0000
  2535 Zr14    47.0455  18.0333  17.6229   Zr        1 RES1   0.0000
  2536 Zr20    44.7989  15.3763  18.0333   Zr        1 RES1   0.0000
  2537 O4      39.3971  19.4667   8.7747   Oco2      1 RES1   0.0000
  2538 O93     44.1607  19.4506  14.1109   Oco2      1 RES1   0.0000
  2539 O94     36.0959  19.4506  12.6413   Oco2      1 RES1   0.0000
  2540 O104    45.7409  19.1992  16.1993   O3        1 RES1   0.0000
  2541 O117    42.9515  18.9887  16.4704   O3        1 RES1   0.0000
  2542 O118    37.3051  18.9887  10.2818   O3        1 RES1   0.0000
  2543 Zr3     42.1285   9.1159  26.5403   Zr        1 RES1   0.0000
  2544 Zr7     44.3751   6.4589  26.9507   Zr        1 RES1   0.0000
  2545 Zr11    44.7855   8.7055  24.2937   Zr        1 RES1   0.0000
  2546 Zr15    47.0455   8.7189  26.9641   Zr        1 RES1   0.0000
  2547 Zr19    44.7989  11.3759  26.5537   Zr        1 RES1   0.0000
  2548 Zr21    44.3885  17.6229  33.2111   Zr        1 RES1   0.0000
  2549 Zr23    44.3885   9.1293  29.2107   Zr        1 RES1   0.0000
  2550 O11     42.9551   8.7747  23.0247   Oco2      1 RES1   0.0000
  2551 O19     44.7297  12.6449  28.3841   Oco2      1 RES1   0.0000
  2552 O20     44.7297  14.1073  34.0377   Oco2      1 RES1   0.0000
  2553 O25     39.0653  11.1396  18.2735   Oco2      1 RES1   0.0000
  2554 O26     41.1913  15.6126  18.2735   Oco2      1 RES1   0.0000
  2555 O27     41.1913  11.1396  26.3135   Oco2      1 RES1   0.0000
  2556 O28     39.0653  15.6126  26.3135   Oco2      1 RES1   0.0000
  2557 O43     45.0257  12.3131  24.5300   Oco2      1 RES1   0.0000
  2558 O44     45.0257  14.4391  20.0570   Oco2      1 RES1   0.0000
  2559 O45     42.3648  17.3961  32.2739   Oco2      1 RES1   0.0000
  2560 O46     37.8918  17.3961  30.1479   Oco2      1 RES1   0.0000
  2561 O47     42.3648   9.3561  30.1479   Oco2      1 RES1   0.0000
  2562 O48     37.8918   9.3561  32.2739   Oco2      1 RES1   0.0000
  2563 O49     39.0511   9.0476  20.0873   Oco2      1 RES1   0.0000
  2564 O51     41.2055   9.0476  24.4997   Oco2      1 RES1   0.0000
  2565 O69     44.4568  15.5823  32.2881   Oco2      1 RES1   0.0000
  2566 O71     44.4568  11.1699  30.1337   Oco2      1 RES1   0.0000
  2567 O73     39.3935   9.3437  34.0538   Oco2      1 RES1   0.0000
  2568 O74     40.8631  17.4085  34.0538   Oco2      1 RES1   0.0000
  2569 O75     40.8631   9.3437  28.3680   Oco2      1 RES1   0.0000
  2570 O76     39.3935  17.4085  28.3680   Oco2      1 RES1   0.0000
  2571 O81     45.0133  16.2190  21.5587   Oco2      1 RES1   0.0000
  2572 O83     45.0133  10.5332  23.0283   Oco2      1 RES1   0.0000
  2573 O91     42.9712  12.6413  26.3259   Oco2      1 RES1   0.0000
  2574 O92     42.9712  14.1109  18.2611   Oco2      1 RES1   0.0000
  2575 C1      38.5303  12.2900  18.2628   C.2       1 RES1   0.0000
  2576 C2      41.7263  14.4622  18.2628   C.2       1 RES1   0.0000
  2577 C3      41.7263  12.2900  26.3242   C.2       1 RES1   0.0000
  2578 C4      38.5303  14.4622  26.3242   C.2       1 RES1   0.0000
  2579 C19     45.0150  11.7781  23.3796   C.2       1 RES1   0.0000
  2580 C20     45.0150  14.9741  21.2074   C.2       1 RES1   0.0000
  2581 C21     41.2144  17.4068  32.8089   C.2       1 RES1   0.0000
  2582 C22     39.0422  17.4068  29.6129   C.2       1 RES1   0.0000
  2583 C23     41.2144   9.3454  29.6129   C.2       1 RES1   0.0000
  2584 C24     39.0422   9.3454  32.8089   C.2       1 RES1   0.0000
  2585 C25     39.4898  13.4742  18.2682   C.2       1 RES1   0.0000
  2586 C26     40.7668  13.2780  18.2682   C.2       1 RES1   0.0000
  2587 C27     40.7668  13.4742  26.3188   C.2       1 RES1   0.0000
  2588 C28     39.4898  13.2780  26.3188   C.2       1 RES1   0.0000
  2589 C43     45.0204  12.7376  22.1954   C.2       1 RES1   0.0000
  2590 C44     45.0204  14.0146  22.3916   C.2       1 RES1   0.0000
  2591 C45     40.0302  17.4014  31.8494   C.2       1 RES1   0.0000
  2592 C46     40.2264  17.4014  30.5724   C.2       1 RES1   0.0000
  2593 C47     40.0302   9.3508  30.5724   C.2       1 RES1   0.0000
  2594 C48     40.2264   9.3508  31.8494   C.2       1 RES1   0.0000
  2595 H1      39.1563  14.3427  18.2700   H         1 RES1   0.0000
  2596 H2      41.1003  12.4095  18.2700   H         1 RES1   0.0000
  2597 H3      41.1003  14.3427  26.3170   H         1 RES1   0.0000
  2598 H4      39.1563  12.4095  26.3170   H         1 RES1   0.0000
  2599 H19     45.0222  12.4041  21.3269   H         1 RES1   0.0000
  2600 H20     45.0222  14.3481  23.2601   H         1 RES1   0.0000
  2601 H21     39.1617  17.3996  32.1829   H         1 RES1   0.0000
  2602 H22     41.0949  17.3996  30.2389   H         1 RES1   0.0000
  2603 H23     39.1617   9.3526  30.2389   H         1 RES1   0.0000
  2604 H24     41.0949   9.3526  32.1829   H         1 RES1   0.0000
  2605 C59     41.7299   8.9174  23.3529   C.2       1 RES1   0.0000
  2606 C60     38.5267   8.9174  21.2341   C.2       1 RES1   0.0000
  2607 C67     44.5870  12.3167  29.6093   C.2       1 RES1   0.0000
  2608 C68     44.5870  14.4355  32.8125   C.2       1 RES1   0.0000
  2609 C83     40.7793   8.9156  22.1740   C.2       1 RES1   0.0000
  2610 C84     39.4773   8.9156  22.4130   C.2       1 RES1   0.0000
  2611 C91     44.5888  13.4956  30.5599   C.2       1 RES1   0.0000
  2612 C92     44.5888  13.2566  31.8619   C.2       1 RES1   0.0000
  2613 H35     41.1021   8.9156  21.3019   H         1 RES1   0.0000
  2614 H36     39.1545   8.9156  23.2851   H         1 RES1   0.0000
  2615 H43     44.5888  14.3677  30.2371   H         1 RES1   0.0000
  2616 H44     44.5888  12.3845  32.1847   H         1 RES1   0.0000
  2617 O98     43.2226  16.1993  34.5157   O3        1 RES1   0.0000
  2618 O99     43.2226  10.5529  27.9061   O3        1 RES1   0.0000
  2619 O103    45.7409   7.5530  28.3877   O3        1 RES1   0.0000
  2620 O105    46.2225  16.6809  19.1992   O3        1 RES1   0.0000
  2621 O107    46.2225  10.0713  25.3878   O3        1 RES1   0.0000
  2622 O111    45.9514   7.2819  25.5983   O3        1 RES1   0.0000
  2623 O115    43.4331  10.2818  25.1167   O3        1 RES1   0.0000
  2624 O116    43.4331  16.4704  19.4703   O3        1 RES1   0.0000
  2625 O119    42.9515   7.7635  28.1166   O3        1 RES1   0.0000
  2626 O155    43.1870   7.5174  25.3522   O3        1 RES1   0.0000
  2627 O158    45.9870  16.4348  34.2696   O3        1 RES1   0.0000
  2628 O159    45.9870  10.3174  28.1522   O3        1 RES1   0.0000
  2629 Zr2     42.1285  17.6363  35.8815   Zr        1 RES1   0.0000
  2630 Zr8     44.3751  20.2933  35.4711   Zr        1 RES1   0.0000
  2631 Zr9     44.7855  18.0467  20.2933   Zr        1 RES1   0.0000
  2632 Zr14    47.0455  18.0333  35.4577   Zr        1 RES1   0.0000
  2633 Zr20    44.7989  15.3763  35.8681   Zr        1 RES1   0.0000
  2634 O2      40.8595  19.4667  17.9775   Oco2      1 RES1   0.0000
  2635 O4      39.3971  19.4667  26.6095   Oco2      1 RES1   0.0000
  2636 O50     41.2055  17.7046  20.0873   Oco2      1 RES1   0.0000
  2637 O52     39.0511  17.7046  24.4997   Oco2      1 RES1   0.0000
  2638 O93     44.1607  19.4506  31.9457   Oco2      1 RES1   0.0000
  2639 O94     36.0959  19.4506  30.4761   Oco2      1 RES1   0.0000
  2640 O104    45.7409  19.1992  34.0341   O3        1 RES1   0.0000
  2641 O117    42.9515  18.9887  34.3052   O3        1 RES1   0.0000
  2642 O118    37.3051  18.9887  28.1166   O3        1 RES1   0.0000
  2643 O120    37.3051   7.7635  16.4704   O3        1 RES1   0.0000
  2644 O154    43.1870  19.2348  19.2348   O3        1 RES1   0.0000
  2645 Zr3     42.1285   9.1159  44.3751   Zr        1 RES1   0.0000
  2646 Zr7     44.3751   6.4589  44.7855   Zr        1 RES1   0.0000
  2647 Zr11    44.7855   8.7055  42.1285   Zr        1 RES1   0.0000
  2648 Zr15    47.0455   8.7189  44.7989   Zr        1 RES1   0.0000
  2649 Zr19    44.7989  11.3759  44.3885   Zr        1 RES1   0.0000
  2650 Zr23    44.3885   9.1293  47.0455   Zr        1 RES1   0.0000
  2651 O11     42.9551   8.7747  40.8595   Oco2      1 RES1   0.0000
  2652 O25     39.0653  11.1396  36.1083   Oco2      1 RES1   0.0000
  2653 O26     41.1913  15.6126  36.1083   Oco2      1 RES1   0.0000
  2654 O27     41.1913  11.1396  44.1483   Oco2      1 RES1   0.0000
  2655 O28     39.0653  15.6126  44.1483   Oco2      1 RES1   0.0000
  2656 O43     45.0257  12.3131  42.3648   Oco2      1 RES1   0.0000
  2657 O44     45.0257  14.4391  37.8918   Oco2      1 RES1   0.0000
  2658 O49     39.0511   9.0476  37.9221   Oco2      1 RES1   0.0000
  2659 O51     41.2055   9.0476  42.3345   Oco2      1 RES1   0.0000
  2660 O81     45.0133  16.2190  39.3935   Oco2      1 RES1   0.0000
  2661 O83     45.0133  10.5332  40.8631   Oco2      1 RES1   0.0000
  2662 O91     42.9712  12.6413  44.1607   Oco2      1 RES1   0.0000
  2663 O92     42.9712  14.1109  36.0959   Oco2      1 RES1   0.0000
  2664 C1      38.5303  12.2900  36.0976   C.2       1 RES1   0.0000
  2665 C2      41.7263  14.4622  36.0976   C.2       1 RES1   0.0000
  2666 C3      41.7263  12.2900  44.1590   C.2       1 RES1   0.0000
  2667 C4      38.5303  14.4622  44.1590   C.2       1 RES1   0.0000
  2668 C19     45.0150  11.7781  41.2144   C.2       1 RES1   0.0000
  2669 C20     45.0150  14.9741  39.0422   C.2       1 RES1   0.0000
  2670 C25     39.4898  13.4742  36.1030   C.2       1 RES1   0.0000
  2671 C26     40.7668  13.2780  36.1030   C.2       1 RES1   0.0000
  2672 C27     40.7668  13.4742  44.1536   C.2       1 RES1   0.0000
  2673 C28     39.4898  13.2780  44.1536   C.2       1 RES1   0.0000
  2674 C43     45.0204  12.7376  40.0302   C.2       1 RES1   0.0000
  2675 C44     45.0204  14.0146  40.2264   C.2       1 RES1   0.0000
  2676 H1      39.1563  14.3427  36.1048   H         1 RES1   0.0000
  2677 H2      41.1003  12.4095  36.1048   H         1 RES1   0.0000
  2678 H3      41.1003  14.3427  44.1518   H         1 RES1   0.0000
  2679 H4      39.1563  12.4095  44.1518   H         1 RES1   0.0000
  2680 H19     45.0222  12.4041  39.1617   H         1 RES1   0.0000
  2681 H20     45.0222  14.3481  41.0949   H         1 RES1   0.0000
  2682 C59     41.7299   8.9174  41.1877   C.2       1 RES1   0.0000
  2683 C60     38.5267   8.9174  39.0689   C.2       1 RES1   0.0000
  2684 C83     40.7793   8.9156  40.0088   C.2       1 RES1   0.0000
  2685 C84     39.4773   8.9156  40.2478   C.2       1 RES1   0.0000
  2686 H35     41.1021   8.9156  39.1367   H         1 RES1   0.0000
  2687 H36     39.1545   8.9156  41.1199   H         1 RES1   0.0000
  2688 O99     43.2226  10.5529  45.7409   O3        1 RES1   0.0000
  2689 O103    45.7409   7.5530  46.2225   O3        1 RES1   0.0000
  2690 O105    46.2225  16.6809  37.0340   O3        1 RES1   0.0000
  2691 O107    46.2225  10.0713  43.2226   O3        1 RES1   0.0000
  2692 O111    45.9514   7.2819  43.4331   O3        1 RES1   0.0000
  2693 O115    43.4331  10.2818  42.9515   O3        1 RES1   0.0000
  2694 O116    43.4331  16.4704  37.3051   O3        1 RES1   0.0000
  2695 O119    42.9515   7.7635  45.9514   O3        1 RES1   0.0000
  2696 O155    43.1870   7.5174  43.1870   O3        1 RES1   0.0000
  2697 O159    45.9870  10.3174  45.9870   O3        1 RES1   0.0000
  2698 Zr9     44.7855  18.0467  38.1281   Zr        1 RES1   0.0000
  2699 O2      40.8595  19.4667  35.8123   Oco2      1 RES1   0.0000
  2700 O4      39.3971  19.4667  44.4443   Oco2      1 RES1   0.0000
  2701 O50     41.2055  17.7046  37.9221   Oco2      1 RES1   0.0000
  2702 O52     39.0511  17.7046  42.3345   Oco2      1 RES1   0.0000
  2703 O118    37.3051  18.9887  45.9514   O3        1 RES1   0.0000
  2704 O120    37.3051   7.7635  34.3052   O3        1 RES1   0.0000
  2705 O154    43.1870  19.2348  37.0696   O3        1 RES1   0.0000
  2706 Zr3     42.1285  26.9507   8.7055   Zr        1 RES1   0.0000
  2707 Zr7     44.3751  24.2937   9.1159   Zr        1 RES1   0.0000
  2708 Zr11    44.7855  26.5403   6.4589   Zr        1 RES1   0.0000
  2709 Zr15    47.0455  26.5537   9.1293   Zr        1 RES1   0.0000
  2710 Zr19    44.7989  29.2107   8.7189   Zr        1 RES1   0.0000
  2711 Zr21    44.3885  35.4577  15.3763   Zr        1 RES1   0.0000
  2712 Zr23    44.3885  26.9641  11.3759   Zr        1 RES1   0.0000
  2713 O3      40.8595  25.1203   8.7747   Oco2      1 RES1   0.0000
  2714 O19     44.7297  30.4797  10.5493   Oco2      1 RES1   0.0000
  2715 O20     44.7297  31.9421  16.2029   Oco2      1 RES1   0.0000
  2716 O27     41.1913  28.9744   8.4787   Oco2      1 RES1   0.0000
  2717 O28     39.0653  33.4474   8.4787   Oco2      1 RES1   0.0000
  2718 O29     36.1083  21.2305  11.1396   Oco2      1 RES1   0.0000
  2719 O30     36.1083  23.3565  15.6126   Oco2      1 RES1   0.0000
  2720 O31     44.1483  23.3565  11.1396   Oco2      1 RES1   0.0000
  2721 O32     44.1483  21.2305  15.6126   Oco2      1 RES1   0.0000
  2722 O45     42.3648  35.2309  14.4391   Oco2      1 RES1   0.0000
  2723 O46     37.8918  35.2309  12.3131   Oco2      1 RES1   0.0000
  2724 O47     42.3648  27.1909  12.3131   Oco2      1 RES1   0.0000
  2725 O48     37.8918  27.1909  14.4391   Oco2      1 RES1   0.0000
  2726 O53     37.9221  21.2163   9.0476   Oco2      1 RES1   0.0000
  2727 O55     42.3345  23.3707   9.0476   Oco2      1 RES1   0.0000
  2728 O69     44.4568  33.4171  14.4533   Oco2      1 RES1   0.0000
  2729 O71     44.4568  29.0047  12.2989   Oco2      1 RES1   0.0000
  2730 O73     39.3935  27.1785  16.2190   Oco2      1 RES1   0.0000
  2731 O74     40.8631  35.2433  16.2190   Oco2      1 RES1   0.0000
  2732 O75     40.8631  27.1785  10.5332   Oco2      1 RES1   0.0000
  2733 O76     39.3935  35.2433  10.5332   Oco2      1 RES1   0.0000
  2734 O91     42.9712  30.4761   8.4911   Oco2      1 RES1   0.0000
  2735 O95     44.1607  25.1364  12.6413   Oco2      1 RES1   0.0000
  2736 O96     36.0959  25.1364  14.1109   Oco2      1 RES1   0.0000
  2737 C3      41.7263  30.1248   8.4894   C.2       1 RES1   0.0000
  2738 C4      38.5303  32.2970   8.4894   C.2       1 RES1   0.0000
  2739 C5      36.0976  20.6955  12.2900   C.2       1 RES1   0.0000
  2740 C6      36.0976  23.8915  14.4622   C.2       1 RES1   0.0000
  2741 C7      44.1590  23.8915  12.2900   C.2       1 RES1   0.0000
  2742 C8      44.1590  20.6955  14.4622   C.2       1 RES1   0.0000
  2743 C21     41.2144  35.2416  14.9741   C.2       1 RES1   0.0000
  2744 C22     39.0422  35.2416  11.7781   C.2       1 RES1   0.0000
  2745 C23     41.2144  27.1802  11.7781   C.2       1 RES1   0.0000
  2746 C24     39.0422  27.1802  14.9741   C.2       1 RES1   0.0000
  2747 C27     40.7668  31.3090   8.4840   C.2       1 RES1   0.0000
  2748 C28     39.4898  31.1128   8.4840   C.2       1 RES1   0.0000
  2749 C29     36.1030  21.6550  13.4742   C.2       1 RES1   0.0000
  2750 C30     36.1030  22.9320  13.2780   C.2       1 RES1   0.0000
  2751 C31     44.1536  22.9320  13.4742   C.2       1 RES1   0.0000
  2752 C32     44.1536  21.6550  13.2780   C.2       1 RES1   0.0000
  2753 C45     40.0302  35.2362  14.0146   C.2       1 RES1   0.0000
  2754 C46     40.2264  35.2362  12.7376   C.2       1 RES1   0.0000
  2755 C47     40.0302  27.1856  12.7376   C.2       1 RES1   0.0000
  2756 C48     40.2264  27.1856  14.0146   C.2       1 RES1   0.0000
  2757 H3      41.1003  32.1775   8.4822   H         1 RES1   0.0000
  2758 H4      39.1563  30.2443   8.4822   H         1 RES1   0.0000
  2759 H5      36.1048  21.3215  14.3427   H         1 RES1   0.0000
  2760 H6      36.1048  23.2655  12.4095   H         1 RES1   0.0000
  2761 H7      44.1518  23.2655  14.3427   H         1 RES1   0.0000
  2762 H8      44.1518  21.3215  12.4095   H         1 RES1   0.0000
  2763 H21     39.1617  35.2344  14.3481   H         1 RES1   0.0000
  2764 H22     41.0949  35.2344  12.4041   H         1 RES1   0.0000
  2765 H23     39.1617  27.1874  12.4041   H         1 RES1   0.0000
  2766 H24     41.0949  27.1874  14.3481   H         1 RES1   0.0000
  2767 C51     41.1877  23.8951   8.9174   C.2       1 RES1   0.0000
  2768 C52     39.0689  20.6919   8.9174   C.2       1 RES1   0.0000
  2769 C67     44.5870  30.1515  11.7745   C.2       1 RES1   0.0000
  2770 C68     44.5870  32.2703  14.9777   C.2       1 RES1   0.0000
  2771 C75     40.0088  22.9445   8.9156   C.2       1 RES1   0.0000
  2772 C76     40.2478  21.6425   8.9156   C.2       1 RES1   0.0000
  2773 C91     44.5888  31.3304  12.7251   C.2       1 RES1   0.0000
  2774 C92     44.5888  31.0914  14.0271   C.2       1 RES1   0.0000
  2775 H27     39.1367  23.2673   8.9156   H         1 RES1   0.0000
  2776 H28     41.1199  21.3197   8.9156   H         1 RES1   0.0000
  2777 H43     44.5888  32.2025  12.4023   H         1 RES1   0.0000
  2778 H44     44.5888  30.2193  14.3499   H         1 RES1   0.0000
  2779 O98     43.2226  34.0341  16.6809   O3        1 RES1   0.0000
  2780 O99     43.2226  28.3877  10.0713   O3        1 RES1   0.0000
  2781 O103    45.7409  25.3878  10.5529   O3        1 RES1   0.0000
  2782 O107    46.2225  27.9061   7.5530   O3        1 RES1   0.0000
  2783 O111    45.9514  25.1167   7.7635   O3        1 RES1   0.0000
  2784 O115    43.4331  28.1166   7.2819   O3        1 RES1   0.0000
  2785 O119    42.9515  25.5983  10.2818   O3        1 RES1   0.0000
  2786 O155    43.1870  25.3522   7.5174   O3        1 RES1   0.0000
  2787 O158    45.9870  34.2696  16.4348   O3        1 RES1   0.0000
  2788 O159    45.9870  28.1522  10.3174   O3        1 RES1   0.0000
  2789 Zr2     42.1285  35.4711  18.0467   Zr        1 RES1   0.0000
  2790 Zr8     44.3751  38.1281  17.6363   Zr        1 RES1   0.0000
  2791 Zr14    47.0455  35.8681  17.6229   Zr        1 RES1   0.0000
  2792 Zr20    44.7989  33.2111  18.0333   Zr        1 RES1   0.0000
  2793 O4      39.3971  37.3015   8.7747   Oco2      1 RES1   0.0000
  2794 O6      35.8123  23.0247  19.4667   Oco2      1 RES1   0.0000
  2795 O8      44.4443  21.5623  19.4667   Oco2      1 RES1   0.0000
  2796 O54     37.9221  23.3707  17.7046   Oco2      1 RES1   0.0000
  2797 O56     42.3345  21.2163  17.7046   Oco2      1 RES1   0.0000
  2798 O93     44.1607  37.2854  14.1109   Oco2      1 RES1   0.0000
  2799 O94     36.0959  37.2854  12.6413   Oco2      1 RES1   0.0000
  2800 O104    45.7409  37.0340  16.1993   O3        1 RES1   0.0000
  2801 O110    45.9514  19.4703  18.9887   O3        1 RES1   0.0000
  2802 O117    42.9515  36.8235  16.4704   O3        1 RES1   0.0000
  2803 O118    37.3051  36.8235  10.2818   O3        1 RES1   0.0000
  2804 Zr3     42.1285  26.9507  26.5403   Zr        1 RES1   0.0000
  2805 Zr7     44.3751  24.2937  26.9507   Zr        1 RES1   0.0000
  2806 Zr11    44.7855  26.5403  24.2937   Zr        1 RES1   0.0000
  2807 Zr15    47.0455  26.5537  26.9641   Zr        1 RES1   0.0000
  2808 Zr19    44.7989  29.2107  26.5537   Zr        1 RES1   0.0000
  2809 Zr21    44.3885  35.4577  33.2111   Zr        1 RES1   0.0000
  2810 Zr23    44.3885  26.9641  29.2107   Zr        1 RES1   0.0000
  2811 O1      39.3971  25.1203  17.9775   Oco2      1 RES1   0.0000
  2812 O3      40.8595  25.1203  26.6095   Oco2      1 RES1   0.0000
  2813 O5      35.8123  21.5623  25.1203   Oco2      1 RES1   0.0000
  2814 O7      44.4443  23.0247  25.1203   Oco2      1 RES1   0.0000
  2815 O9      42.9551  17.9775  21.5623   Oco2      1 RES1   0.0000
  2816 O11     42.9551  26.6095  23.0247   Oco2      1 RES1   0.0000
  2817 O19     44.7297  30.4797  28.3841   Oco2      1 RES1   0.0000
  2818 O20     44.7297  31.9421  34.0377   Oco2      1 RES1   0.0000
  2819 O25     39.0653  28.9744  18.2735   Oco2      1 RES1   0.0000
  2820 O26     41.1913  33.4474  18.2735   Oco2      1 RES1   0.0000
  2821 O27     41.1913  28.9744  26.3135   Oco2      1 RES1   0.0000
  2822 O28     39.0653  33.4474  26.3135   Oco2      1 RES1   0.0000
  2823 O29     36.1083  21.2305  28.9744   Oco2      1 RES1   0.0000
  2824 O30     36.1083  23.3565  33.4474   Oco2      1 RES1   0.0000
  2825 O31     44.1483  23.3565  28.9744   Oco2      1 RES1   0.0000
  2826 O32     44.1483  21.2305  33.4474   Oco2      1 RES1   0.0000
  2827 O43     45.0257  30.1479  24.5300   Oco2      1 RES1   0.0000
  2828 O44     45.0257  32.2739  20.0570   Oco2      1 RES1   0.0000
  2829 O45     42.3648  35.2309  32.2739   Oco2      1 RES1   0.0000
  2830 O46     37.8918  35.2309  30.1479   Oco2      1 RES1   0.0000
  2831 O47     42.3648  27.1909  30.1479   Oco2      1 RES1   0.0000
  2832 O48     37.8918  27.1909  32.2739   Oco2      1 RES1   0.0000
  2833 O49     39.0511  26.8824  20.0873   Oco2      1 RES1   0.0000
  2834 O51     41.2055  26.8824  24.4997   Oco2      1 RES1   0.0000
  2835 O53     37.9221  21.2163  26.8824   Oco2      1 RES1   0.0000
  2836 O55     42.3345  23.3707  26.8824   Oco2      1 RES1   0.0000
  2837 O57     44.7172  20.0873  21.2163   Oco2      1 RES1   0.0000
  2838 O59     44.7172  24.4997  23.3707   Oco2      1 RES1   0.0000
  2839 O69     44.4568  33.4171  32.2881   Oco2      1 RES1   0.0000
  2840 O71     44.4568  29.0047  30.1337   Oco2      1 RES1   0.0000
  2841 O73     39.3935  27.1785  34.0538   Oco2      1 RES1   0.0000
  2842 O74     40.8631  35.2433  34.0538   Oco2      1 RES1   0.0000
  2843 O75     40.8631  27.1785  28.3680   Oco2      1 RES1   0.0000
  2844 O76     39.3935  35.2433  28.3680   Oco2      1 RES1   0.0000
  2845 O81     45.0133  34.0538  21.5587   Oco2      1 RES1   0.0000
  2846 O83     45.0133  28.3680  23.0283   Oco2      1 RES1   0.0000
  2847 O91     42.9712  30.4761  26.3259   Oco2      1 RES1   0.0000
  2848 O92     42.9712  31.9457  18.2611   Oco2      1 RES1   0.0000
  2849 O95     44.1607  25.1364  30.4761   Oco2      1 RES1   0.0000
  2850 O96     36.0959  25.1364  31.9457   Oco2      1 RES1   0.0000
  2851 C1      38.5303  30.1248  18.2628   C.2       1 RES1   0.0000
  2852 C2      41.7263  32.2970  18.2628   C.2       1 RES1   0.0000
  2853 C3      41.7263  30.1248  26.3242   C.2       1 RES1   0.0000
  2854 C4      38.5303  32.2970  26.3242   C.2       1 RES1   0.0000
  2855 C5      36.0976  20.6955  30.1248   C.2       1 RES1   0.0000
  2856 C6      36.0976  23.8915  32.2970   C.2       1 RES1   0.0000
  2857 C7      44.1590  23.8915  30.1248   C.2       1 RES1   0.0000
  2858 C8      44.1590  20.6955  32.2970   C.2       1 RES1   0.0000
  2859 C19     45.0150  29.6129  23.3796   C.2       1 RES1   0.0000
  2860 C20     45.0150  32.8089  21.2074   C.2       1 RES1   0.0000
  2861 C21     41.2144  35.2416  32.8089   C.2       1 RES1   0.0000
  2862 C22     39.0422  35.2416  29.6129   C.2       1 RES1   0.0000
  2863 C23     41.2144  27.1802  29.6129   C.2       1 RES1   0.0000
  2864 C24     39.0422  27.1802  32.8089   C.2       1 RES1   0.0000
  2865 C25     39.4898  31.3090  18.2682   C.2       1 RES1   0.0000
  2866 C26     40.7668  31.1128  18.2682   C.2       1 RES1   0.0000
  2867 C27     40.7668  31.3090  26.3188   C.2       1 RES1   0.0000
  2868 C28     39.4898  31.1128  26.3188   C.2       1 RES1   0.0000
  2869 C29     36.1030  21.6550  31.3090   C.2       1 RES1   0.0000
  2870 C30     36.1030  22.9320  31.1128   C.2       1 RES1   0.0000
  2871 C31     44.1536  22.9320  31.3090   C.2       1 RES1   0.0000
  2872 C32     44.1536  21.6550  31.1128   C.2       1 RES1   0.0000
  2873 C43     45.0204  30.5724  22.1954   C.2       1 RES1   0.0000
  2874 C44     45.0204  31.8494  22.3916   C.2       1 RES1   0.0000
  2875 C45     40.0302  35.2362  31.8494   C.2       1 RES1   0.0000
  2876 C46     40.2264  35.2362  30.5724   C.2       1 RES1   0.0000
  2877 C47     40.0302  27.1856  30.5724   C.2       1 RES1   0.0000
  2878 C48     40.2264  27.1856  31.8494   C.2       1 RES1   0.0000
  2879 H1      39.1563  32.1775  18.2700   H         1 RES1   0.0000
  2880 H2      41.1003  30.2443  18.2700   H         1 RES1   0.0000
  2881 H3      41.1003  32.1775  26.3170   H         1 RES1   0.0000
  2882 H4      39.1563  30.2443  26.3170   H         1 RES1   0.0000
  2883 H5      36.1048  21.3215  32.1775   H         1 RES1   0.0000
  2884 H6      36.1048  23.2655  30.2443   H         1 RES1   0.0000
  2885 H7      44.1518  23.2655  32.1775   H         1 RES1   0.0000
  2886 H8      44.1518  21.3215  30.2443   H         1 RES1   0.0000
  2887 H19     45.0222  30.2389  21.3269   H         1 RES1   0.0000
  2888 H20     45.0222  32.1829  23.2601   H         1 RES1   0.0000
  2889 H21     39.1617  35.2344  32.1829   H         1 RES1   0.0000
  2890 H22     41.0949  35.2344  30.2389   H         1 RES1   0.0000
  2891 H23     39.1617  27.1874  30.2389   H         1 RES1   0.0000
  2892 H24     41.0949  27.1874  32.1829   H         1 RES1   0.0000
  2893 C49     39.0689  23.8951  17.8348   C.2       1 RES1   0.0000
  2894 C50     41.1877  20.6919  17.8348   C.2       1 RES1   0.0000
  2895 C51     41.1877  23.8951  26.7522   C.2       1 RES1   0.0000
  2896 C52     39.0689  20.6919  26.7522   C.2       1 RES1   0.0000
  2897 C53     35.6696  21.2341  23.8951   C.2       1 RES1   0.0000
  2898 C54     35.6696  23.3529  20.6919   C.2       1 RES1   0.0000
  2899 C55     44.5870  23.3529  23.8951   C.2       1 RES1   0.0000
  2900 C56     44.5870  21.2341  20.6919   C.2       1 RES1   0.0000
  2901 C57     41.7299  17.8348  21.2341   C.2       1 RES1   0.0000
  2902 C58     38.5267  17.8348  23.3529   C.2       1 RES1   0.0000
  2903 C59     41.7299  26.7522  23.3529   C.2       1 RES1   0.0000
  2904 C60     38.5267  26.7522  21.2341   C.2       1 RES1   0.0000
  2905 C67     44.5870  30.1515  29.6093   C.2       1 RES1   0.0000
  2906 C68     44.5870  32.2703  32.8125   C.2       1 RES1   0.0000
  2907 C73     40.2478  22.9445  17.8366   C.2       1 RES1   0.0000
  2908 C74     40.0088  21.6425  17.8366   C.2       1 RES1   0.0000
  2909 C75     40.0088  22.9445  26.7504   C.2       1 RES1   0.0000
  2910 C76     40.2478  21.6425  26.7504   C.2       1 RES1   0.0000
  2911 C77     35.6714  22.4130  22.9445   C.2       1 RES1   0.0000
  2912 C78     35.6714  22.1740  21.6425   C.2       1 RES1   0.0000
  2913 C79     44.5852  22.1740  22.9445   C.2       1 RES1   0.0000
  2914 C80     44.5852  22.4130  21.6425   C.2       1 RES1   0.0000
  2915 C81     40.7793  17.8366  22.4130   C.2       1 RES1   0.0000
  2916 C82     39.4773  17.8366  22.1740   C.2       1 RES1   0.0000
  2917 C83     40.7793  26.7504  22.1740   C.2       1 RES1   0.0000
  2918 C84     39.4773  26.7504  22.4130   C.2       1 RES1   0.0000
  2919 C91     44.5888  31.3304  30.5599   C.2       1 RES1   0.0000
  2920 C92     44.5888  31.0914  31.8619   C.2       1 RES1   0.0000
  2921 H25     41.1199  23.2673  17.8366   H         1 RES1   0.0000
  2922 H26     39.1367  21.3197  17.8366   H         1 RES1   0.0000
  2923 H27     39.1367  23.2673  26.7504   H         1 RES1   0.0000
  2924 H28     41.1199  21.3197  26.7504   H         1 RES1   0.0000
  2925 H29     35.6714  23.2851  23.2673   H         1 RES1   0.0000
  2926 H30     35.6714  21.3019  21.3197   H         1 RES1   0.0000
  2927 H31     44.5852  21.3019  23.2673   H         1 RES1   0.0000
  2928 H32     44.5852  23.2851  21.3197   H         1 RES1   0.0000
  2929 H33     41.1021  17.8366  23.2851   H         1 RES1   0.0000
  2930 H34     39.1545  17.8366  21.3019   H         1 RES1   0.0000
  2931 H35     41.1021  26.7504  21.3019   H         1 RES1   0.0000
  2932 H36     39.1545  26.7504  23.2851   H         1 RES1   0.0000
  2933 H43     44.5888  32.2025  30.2371   H         1 RES1   0.0000
  2934 H44     44.5888  30.2193  32.1847   H         1 RES1   0.0000
  2935 O98     43.2226  34.0341  34.5157   O3        1 RES1   0.0000
  2936 O99     43.2226  28.3877  27.9061   O3        1 RES1   0.0000
  2937 O103    45.7409  25.3878  28.3877   O3        1 RES1   0.0000
  2938 O105    46.2225  34.5157  19.1992   O3        1 RES1   0.0000
  2939 O107    46.2225  27.9061  25.3878   O3        1 RES1   0.0000
  2940 O111    45.9514  25.1167  25.5983   O3        1 RES1   0.0000
  2941 O115    43.4331  28.1166  25.1167   O3        1 RES1   0.0000
  2942 O116    43.4331  34.3052  19.4703   O3        1 RES1   0.0000
  2943 O119    42.9515  25.5983  28.1166   O3        1 RES1   0.0000
  2944 O155    43.1870  25.3522  25.3522   O3        1 RES1   0.0000
  2945 O158    45.9870  34.2696  34.2696   O3        1 RES1   0.0000
  2946 O159    45.9870  28.1522  28.1522   O3        1 RES1   0.0000
  2947 Zr2     42.1285  35.4711  35.8815   Zr        1 RES1   0.0000
  2948 Zr8     44.3751  38.1281  35.4711   Zr        1 RES1   0.0000
  2949 Zr9     44.7855  35.8815  20.2933   Zr        1 RES1   0.0000
  2950 Zr14    47.0455  35.8681  35.4577   Zr        1 RES1   0.0000
  2951 Zr20    44.7989  33.2111  35.8681   Zr        1 RES1   0.0000
  2952 O2      40.8595  37.3015  17.9775   Oco2      1 RES1   0.0000
  2953 O4      39.3971  37.3015  26.6095   Oco2      1 RES1   0.0000
  2954 O6      35.8123  23.0247  37.3015   Oco2      1 RES1   0.0000
  2955 O8      44.4443  21.5623  37.3015   Oco2      1 RES1   0.0000
  2956 O50     41.2055  35.5394  20.0873   Oco2      1 RES1   0.0000
  2957 O52     39.0511  35.5394  24.4997   Oco2      1 RES1   0.0000
  2958 O54     37.9221  23.3707  35.5394   Oco2      1 RES1   0.0000
  2959 O56     42.3345  21.2163  35.5394   Oco2      1 RES1   0.0000
  2960 O93     44.1607  37.2854  31.9457   Oco2      1 RES1   0.0000
  2961 O94     36.0959  37.2854  30.4761   Oco2      1 RES1   0.0000
  2962 O104    45.7409  37.0340  34.0341   O3        1 RES1   0.0000
  2963 O110    45.9514  19.4703  36.8235   O3        1 RES1   0.0000
  2964 O117    42.9515  36.8235  34.3052   O3        1 RES1   0.0000
  2965 O118    37.3051  36.8235  28.1166   O3        1 RES1   0.0000
  2966 O120    37.3051  25.5983  16.4704   O3        1 RES1   0.0000
  2967 O154    43.1870  37.0696  19.2348   O3        1 RES1   0.0000
  2968 Zr3     42.1285  26.9507  44.3751   Zr        1 RES1   0.0000
  2969 Zr7     44.3751  24.2937  44.7855   Zr        1 RES1   0.0000
  2970 Zr11    44.7855  26.5403  42.1285   Zr        1 RES1   0.0000
  2971 Zr15    47.0455  26.5537  44.7989   Zr        1 RES1   0.0000
  2972 Zr19    44.7989  29.2107  44.3885   Zr        1 RES1   0.0000
  2973 Zr23    44.3885  26.9641  47.0455   Zr        1 RES1   0.0000
  2974 O1      39.3971  25.1203  35.8123   Oco2      1 RES1   0.0000
  2975 O3      40.8595  25.1203  44.4443   Oco2      1 RES1   0.0000
  2976 O5      35.8123  21.5623  42.9551   Oco2      1 RES1   0.0000
  2977 O7      44.4443  23.0247  42.9551   Oco2      1 RES1   0.0000
  2978 O9      42.9551  17.9775  39.3971   Oco2      1 RES1   0.0000
  2979 O11     42.9551  26.6095  40.8595   Oco2      1 RES1   0.0000
  2980 O25     39.0653  28.9744  36.1083   Oco2      1 RES1   0.0000
  2981 O26     41.1913  33.4474  36.1083   Oco2      1 RES1   0.0000
  2982 O27     41.1913  28.9744  44.1483   Oco2      1 RES1   0.0000
  2983 O28     39.0653  33.4474  44.1483   Oco2      1 RES1   0.0000
  2984 O43     45.0257  30.1479  42.3648   Oco2      1 RES1   0.0000
  2985 O44     45.0257  32.2739  37.8918   Oco2      1 RES1   0.0000
  2986 O49     39.0511  26.8824  37.9221   Oco2      1 RES1   0.0000
  2987 O51     41.2055  26.8824  42.3345   Oco2      1 RES1   0.0000
  2988 O53     37.9221  21.2163  44.7172   Oco2      1 RES1   0.0000
  2989 O55     42.3345  23.3707  44.7172   Oco2      1 RES1   0.0000
  2990 O57     44.7172  20.0873  39.0511   Oco2      1 RES1   0.0000
  2991 O59     44.7172  24.4997  41.2055   Oco2      1 RES1   0.0000
  2992 O81     45.0133  34.0538  39.3935   Oco2      1 RES1   0.0000
  2993 O83     45.0133  28.3680  40.8631   Oco2      1 RES1   0.0000
  2994 O91     42.9712  30.4761  44.1607   Oco2      1 RES1   0.0000
  2995 O92     42.9712  31.9457  36.0959   Oco2      1 RES1   0.0000
  2996 C1      38.5303  30.1248  36.0976   C.2       1 RES1   0.0000
  2997 C2      41.7263  32.2970  36.0976   C.2       1 RES1   0.0000
  2998 C3      41.7263  30.1248  44.1590   C.2       1 RES1   0.0000
  2999 C4      38.5303  32.2970  44.1590   C.2       1 RES1   0.0000
  3000 C19     45.0150  29.6129  41.2144   C.2       1 RES1   0.0000
  3001 C20     45.0150  32.8089  39.0422   C.2       1 RES1   0.0000
  3002 C25     39.4898  31.3090  36.1030   C.2       1 RES1   0.0000
  3003 C26     40.7668  31.1128  36.1030   C.2       1 RES1   0.0000
  3004 C27     40.7668  31.3090  44.1536   C.2       1 RES1   0.0000
  3005 C28     39.4898  31.1128  44.1536   C.2       1 RES1   0.0000
  3006 C43     45.0204  30.5724  40.0302   C.2       1 RES1   0.0000
  3007 C44     45.0204  31.8494  40.2264   C.2       1 RES1   0.0000
  3008 H1      39.1563  32.1775  36.1048   H         1 RES1   0.0000
  3009 H2      41.1003  30.2443  36.1048   H         1 RES1   0.0000
  3010 H3      41.1003  32.1775  44.1518   H         1 RES1   0.0000
  3011 H4      39.1563  30.2443  44.1518   H         1 RES1   0.0000
  3012 H19     45.0222  30.2389  39.1617   H         1 RES1   0.0000
  3013 H20     45.0222  32.1829  41.0949   H         1 RES1   0.0000
  3014 C49     39.0689  23.8951  35.6696   C.2       1 RES1   0.0000
  3015 C50     41.1877  20.6919  35.6696   C.2       1 RES1   0.0000
  3016 C51     41.1877  23.8951  44.5870   C.2       1 RES1   0.0000
  3017 C52     39.0689  20.6919  44.5870   C.2       1 RES1   0.0000
  3018 C53     35.6696  21.2341  41.7299   C.2       1 RES1   0.0000
  3019 C54     35.6696  23.3529  38.5267   C.2       1 RES1   0.0000
  3020 C55     44.5870  23.3529  41.7299   C.2       1 RES1   0.0000
  3021 C56     44.5870  21.2341  38.5267   C.2       1 RES1   0.0000
  3022 C57     41.7299  17.8348  39.0689   C.2       1 RES1   0.0000
  3023 C58     38.5267  17.8348  41.1877   C.2       1 RES1   0.0000
  3024 C59     41.7299  26.7522  41.1877   C.2       1 RES1   0.0000
  3025 C60     38.5267  26.7522  39.0689   C.2       1 RES1   0.0000
  3026 C73     40.2478  22.9445  35.6714   C.2       1 RES1   0.0000
  3027 C74     40.0088  21.6425  35.6714   C.2       1 RES1   0.0000
  3028 C75     40.0088  22.9445  44.5852   C.2       1 RES1   0.0000
  3029 C76     40.2478  21.6425  44.5852   C.2       1 RES1   0.0000
  3030 C77     35.6714  22.4130  40.7793   C.2       1 RES1   0.0000
  3031 C78     35.6714  22.1740  39.4773   C.2       1 RES1   0.0000
  3032 C79     44.5852  22.1740  40.7793   C.2       1 RES1   0.0000
  3033 C80     44.5852  22.4130  39.4773   C.2       1 RES1   0.0000
  3034 C81     40.7793  17.8366  40.2478   C.2       1 RES1   0.0000
  3035 C82     39.4773  17.8366  40.0088   C.2       1 RES1   0.0000
  3036 C83     40.7793  26.7504  40.0088   C.2       1 RES1   0.0000
  3037 C84     39.4773  26.7504  40.2478   C.2       1 RES1   0.0000
  3038 H25     41.1199  23.2673  35.6714   H         1 RES1   0.0000
  3039 H26     39.1367  21.3197  35.6714   H         1 RES1   0.0000
  3040 H27     39.1367  23.2673  44.5852   H         1 RES1   0.0000
  3041 H28     41.1199  21.3197  44.5852   H         1 RES1   0.0000
  3042 H29     35.6714  23.2851  41.1021   H         1 RES1   0.0000
  3043 H30     35.6714  21.3019  39.1545   H         1 RES1   0.0000
  3044 H31     44.5852  21.3019  41.1021   H         1 RES1   0.0000
  3045 H32     44.5852  23.2851  39.1545   H         1 RES1   0.0000
  3046 H33     41.1021  17.8366  41.1199   H         1 RES1   0.0000
  3047 H34     39.1545  17.8366  39.1367   H         1 RES1   0.0000
  3048 H35     41.1021  26.7504  39.1367   H         1 RES1   0.0000
  3049 H36     39.1545  26.7504  41.1199   H         1 RES1   0.0000
  3050 O99     43.2226  28.3877  45.7409   O3        1 RES1   0.0000
  3051 O103    45.7409  25.3878  46.2225   O3        1 RES1   0.0000
  3052 O105    46.2225  34.5157  37.0340   O3        1 RES1   0.0000
  3053 O107    46.2225  27.9061  43.2226   O3        1 RES1   0.0000
  3054 O111    45.9514  25.1167  43.4331   O3        1 RES1   0.0000
  3055 O115    43.4331  28.1166  42.9515   O3        1 RES1   0.0000
  3056 O116    43.4331  34.3052  37.3051   O3        1 RES1   0.0000
  3057 O119    42.9515  25.5983  45.9514   O3        1 RES1   0.0000
  3058 O155    43.1870  25.3522  43.1870   O3        1 RES1   0.0000
  3059 O159    45.9870  28.1522  45.9870   O3        1 RES1   0.0000
  3060 Zr9     44.7855  35.8815  38.1281   Zr        1 RES1   0.0000
  3061 O2      40.8595  37.3015  35.8123   Oco2      1 RES1   0.0000
  3062 O4      39.3971  37.3015  44.4443   Oco2      1 RES1   0.0000
  3063 O50     41.2055  35.5394  37.9221   Oco2      1 RES1   0.0000
  3064 O52     39.0511  35.5394  42.3345   Oco2      1 RES1   0.0000
  3065 O118    37.3051  36.8235  45.9514   O3        1 RES1   0.0000
  3066 O120    37.3051  25.5983  34.3052   O3        1 RES1   0.0000
  3067 O154    43.1870  37.0696  37.0696   O3        1 RES1   0.0000
  3068 Zr3     42.1285  44.7855   8.7055   Zr        1 RES1   0.0000
  3069 Zr7     44.3751  42.1285   9.1159   Zr        1 RES1   0.0000
  3070 Zr11    44.7855  44.3751   6.4589   Zr        1 RES1   0.0000
  3071 Zr15    47.0455  44.3885   9.1293   Zr        1 RES1   0.0000
  3072 Zr19    44.7989  47.0455   8.7189   Zr        1 RES1   0.0000
  3073 Zr23    44.3885  44.7989  11.3759   Zr        1 RES1   0.0000
  3074 O3      40.8595  42.9551   8.7747   Oco2      1 RES1   0.0000
  3075 O29     36.1083  39.0653  11.1396   Oco2      1 RES1   0.0000
  3076 O30     36.1083  41.1913  15.6126   Oco2      1 RES1   0.0000
  3077 O31     44.1483  41.1913  11.1396   Oco2      1 RES1   0.0000
  3078 O32     44.1483  39.0653  15.6126   Oco2      1 RES1   0.0000
  3079 O47     42.3648  45.0257  12.3131   Oco2      1 RES1   0.0000
  3080 O48     37.8918  45.0257  14.4391   Oco2      1 RES1   0.0000
  3081 O53     37.9221  39.0511   9.0476   Oco2      1 RES1   0.0000
  3082 O55     42.3345  41.2055   9.0476   Oco2      1 RES1   0.0000
  3083 O73     39.3935  45.0133  16.2190   Oco2      1 RES1   0.0000
  3084 O75     40.8631  45.0133  10.5332   Oco2      1 RES1   0.0000
  3085 O95     44.1607  42.9712  12.6413   Oco2      1 RES1   0.0000
  3086 O96     36.0959  42.9712  14.1109   Oco2      1 RES1   0.0000
  3087 C5      36.0976  38.5303  12.2900   C.2       1 RES1   0.0000
  3088 C6      36.0976  41.7263  14.4622   C.2       1 RES1   0.0000
  3089 C7      44.1590  41.7263  12.2900   C.2       1 RES1   0.0000
  3090 C8      44.1590  38.5303  14.4622   C.2       1 RES1   0.0000
  3091 C23     41.2144  45.0150  11.7781   C.2       1 RES1   0.0000
  3092 C24     39.0422  45.0150  14.9741   C.2       1 RES1   0.0000
  3093 C29     36.1030  39.4898  13.4742   C.2       1 RES1   0.0000
  3094 C30     36.1030  40.7668  13.2780   C.2       1 RES1   0.0000
  3095 C31     44.1536  40.7668  13.4742   C.2       1 RES1   0.0000
  3096 C32     44.1536  39.4898  13.2780   C.2       1 RES1   0.0000
  3097 C47     40.0302  45.0204  12.7376   C.2       1 RES1   0.0000
  3098 C48     40.2264  45.0204  14.0146   C.2       1 RES1   0.0000
  3099 H5      36.1048  39.1563  14.3427   H         1 RES1   0.0000
  3100 H6      36.1048  41.1003  12.4095   H         1 RES1   0.0000
  3101 H7      44.1518  41.1003  14.3427   H         1 RES1   0.0000
  3102 H8      44.1518  39.1563  12.4095   H         1 RES1   0.0000
  3103 H23     39.1617  45.0222  12.4041   H         1 RES1   0.0000
  3104 H24     41.0949  45.0222  14.3481   H         1 RES1   0.0000
  3105 C51     41.1877  41.7299   8.9174   C.2       1 RES1   0.0000
  3106 C52     39.0689  38.5267   8.9174   C.2       1 RES1   0.0000
  3107 C75     40.0088  40.7793   8.9156   C.2       1 RES1   0.0000
  3108 C76     40.2478  39.4773   8.9156   C.2       1 RES1   0.0000
  3109 H27     39.1367  41.1021   8.9156   H         1 RES1   0.0000
  3110 H28     41.1199  39.1545   8.9156   H         1 RES1   0.0000
  3111 O99     43.2226  46.2225  10.0713   O3        1 RES1   0.0000
  3112 O103    45.7409  43.2226  10.5529   O3        1 RES1   0.0000
  3113 O107    46.2225  45.7409   7.5530   O3        1 RES1   0.0000
  3114 O111    45.9514  42.9515   7.7635   O3        1 RES1   0.0000
  3115 O115    43.4331  45.9514   7.2819   O3        1 RES1   0.0000
  3116 O119    42.9515  43.4331  10.2818   O3        1 RES1   0.0000
  3117 O155    43.1870  43.1870   7.5174   O3        1 RES1   0.0000
  3118 O159    45.9870  45.9870  10.3174   O3        1 RES1   0.0000
  3119 O6      35.8123  40.8595  19.4667   Oco2      1 RES1   0.0000
  3120 O8      44.4443  39.3971  19.4667   Oco2      1 RES1   0.0000
  3121 O54     37.9221  41.2055  17.7046   Oco2      1 RES1   0.0000
  3122 O56     42.3345  39.0511  17.7046   Oco2      1 RES1   0.0000
  3123 O110    45.9514  37.3051  18.9887   O3        1 RES1   0.0000
  3124 Zr3     42.1285  44.7855  26.5403   Zr        1 RES1   0.0000
  3125 Zr7     44.3751  42.1285  26.9507   Zr        1 RES1   0.0000
  3126 Zr11    44.7855  44.3751  24.2937   Zr        1 RES1   0.0000
  3127 Zr15    47.0455  44.3885  26.9641   Zr        1 RES1   0.0000
  3128 Zr19    44.7989  47.0455  26.5537   Zr        1 RES1   0.0000
  3129 Zr23    44.3885  44.7989  29.2107   Zr        1 RES1   0.0000
  3130 O1      39.3971  42.9551  17.9775   Oco2      1 RES1   0.0000
  3131 O3      40.8595  42.9551  26.6095   Oco2      1 RES1   0.0000
  3132 O5      35.8123  39.3971  25.1203   Oco2      1 RES1   0.0000
  3133 O7      44.4443  40.8595  25.1203   Oco2      1 RES1   0.0000
  3134 O9      42.9551  35.8123  21.5623   Oco2      1 RES1   0.0000
  3135 O11     42.9551  44.4443  23.0247   Oco2      1 RES1   0.0000
  3136 O29     36.1083  39.0653  28.9744   Oco2      1 RES1   0.0000
  3137 O30     36.1083  41.1913  33.4474   Oco2      1 RES1   0.0000
  3138 O31     44.1483  41.1913  28.9744   Oco2      1 RES1   0.0000
  3139 O32     44.1483  39.0653  33.4474   Oco2      1 RES1   0.0000
  3140 O47     42.3648  45.0257  30.1479   Oco2      1 RES1   0.0000
  3141 O48     37.8918  45.0257  32.2739   Oco2      1 RES1   0.0000
  3142 O49     39.0511  44.7172  20.0873   Oco2      1 RES1   0.0000
  3143 O51     41.2055  44.7172  24.4997   Oco2      1 RES1   0.0000
  3144 O53     37.9221  39.0511  26.8824   Oco2      1 RES1   0.0000
  3145 O55     42.3345  41.2055  26.8824   Oco2      1 RES1   0.0000
  3146 O57     44.7172  37.9221  21.2163   Oco2      1 RES1   0.0000
  3147 O59     44.7172  42.3345  23.3707   Oco2      1 RES1   0.0000
  3148 O73     39.3935  45.0133  34.0538   Oco2      1 RES1   0.0000
  3149 O75     40.8631  45.0133  28.3680   Oco2      1 RES1   0.0000
  3150 O95     44.1607  42.9712  30.4761   Oco2      1 RES1   0.0000
  3151 O96     36.0959  42.9712  31.9457   Oco2      1 RES1   0.0000
  3152 C5      36.0976  38.5303  30.1248   C.2       1 RES1   0.0000
  3153 C6      36.0976  41.7263  32.2970   C.2       1 RES1   0.0000
  3154 C7      44.1590  41.7263  30.1248   C.2       1 RES1   0.0000
  3155 C8      44.1590  38.5303  32.2970   C.2       1 RES1   0.0000
  3156 C23     41.2144  45.0150  29.6129   C.2       1 RES1   0.0000
  3157 C24     39.0422  45.0150  32.8089   C.2       1 RES1   0.0000
  3158 C29     36.1030  39.4898  31.3090   C.2       1 RES1   0.0000
  3159 C30     36.1030  40.7668  31.1128   C.2       1 RES1   0.0000
  3160 C31     44.1536  40.7668  31.3090   C.2       1 RES1   0.0000
  3161 C32     44.1536  39.4898  31.1128   C.2       1 RES1   0.0000
  3162 C47     40.0302  45.0204  30.5724   C.2       1 RES1   0.0000
  3163 C48     40.2264  45.0204  31.8494   C.2       1 RES1   0.0000
  3164 H5      36.1048  39.1563  32.1775   H         1 RES1   0.0000
  3165 H6      36.1048  41.1003  30.2443   H         1 RES1   0.0000
  3166 H7      44.1518  41.1003  32.1775   H         1 RES1   0.0000
  3167 H8      44.1518  39.1563  30.2443   H         1 RES1   0.0000
  3168 H23     39.1617  45.0222  30.2389   H         1 RES1   0.0000
  3169 H24     41.0949  45.0222  32.1829   H         1 RES1   0.0000
  3170 C49     39.0689  41.7299  17.8348   C.2       1 RES1   0.0000
  3171 C50     41.1877  38.5267  17.8348   C.2       1 RES1   0.0000
  3172 C51     41.1877  41.7299  26.7522   C.2       1 RES1   0.0000
  3173 C52     39.0689  38.5267  26.7522   C.2       1 RES1   0.0000
  3174 C53     35.6696  39.0689  23.8951   C.2       1 RES1   0.0000
  3175 C54     35.6696  41.1877  20.6919   C.2       1 RES1   0.0000
  3176 C55     44.5870  41.1877  23.8951   C.2       1 RES1   0.0000
  3177 C56     44.5870  39.0689  20.6919   C.2       1 RES1   0.0000
  3178 C57     41.7299  35.6696  21.2341   C.2       1 RES1   0.0000
  3179 C58     38.5267  35.6696  23.3529   C.2       1 RES1   0.0000
  3180 C59     41.7299  44.5870  23.3529   C.2       1 RES1   0.0000
  3181 C60     38.5267  44.5870  21.2341   C.2       1 RES1   0.0000
  3182 C73     40.2478  40.7793  17.8366   C.2       1 RES1   0.0000
  3183 C74     40.0088  39.4773  17.8366   C.2       1 RES1   0.0000
  3184 C75     40.0088  40.7793  26.7504   C.2       1 RES1   0.0000
  3185 C76     40.2478  39.4773  26.7504   C.2       1 RES1   0.0000
  3186 C77     35.6714  40.2478  22.9445   C.2       1 RES1   0.0000
  3187 C78     35.6714  40.0088  21.6425   C.2       1 RES1   0.0000
  3188 C79     44.5852  40.0088  22.9445   C.2       1 RES1   0.0000
  3189 C80     44.5852  40.2478  21.6425   C.2       1 RES1   0.0000
  3190 C81     40.7793  35.6714  22.4130   C.2       1 RES1   0.0000
  3191 C82     39.4773  35.6714  22.1740   C.2       1 RES1   0.0000
  3192 C83     40.7793  44.5852  22.1740   C.2       1 RES1   0.0000
  3193 C84     39.4773  44.5852  22.4130   C.2       1 RES1   0.0000
  3194 H25     41.1199  41.1021  17.8366   H         1 RES1   0.0000
  3195 H26     39.1367  39.1545  17.8366   H         1 RES1   0.0000
  3196 H27     39.1367  41.1021  26.7504   H         1 RES1   0.0000
  3197 H28     41.1199  39.1545  26.7504   H         1 RES1   0.0000
  3198 H29     35.6714  41.1199  23.2673   H         1 RES1   0.0000
  3199 H30     35.6714  39.1367  21.3197   H         1 RES1   0.0000
  3200 H31     44.5852  39.1367  23.2673   H         1 RES1   0.0000
  3201 H32     44.5852  41.1199  21.3197   H         1 RES1   0.0000
  3202 H33     41.1021  35.6714  23.2851   H         1 RES1   0.0000
  3203 H34     39.1545  35.6714  21.3019   H         1 RES1   0.0000
  3204 H35     41.1021  44.5852  21.3019   H         1 RES1   0.0000
  3205 H36     39.1545  44.5852  23.2851   H         1 RES1   0.0000
  3206 O99     43.2226  46.2225  27.9061   O3        1 RES1   0.0000
  3207 O103    45.7409  43.2226  28.3877   O3        1 RES1   0.0000
  3208 O107    46.2225  45.7409  25.3878   O3        1 RES1   0.0000
  3209 O111    45.9514  42.9515  25.5983   O3        1 RES1   0.0000
  3210 O115    43.4331  45.9514  25.1167   O3        1 RES1   0.0000
  3211 O119    42.9515  43.4331  28.1166   O3        1 RES1   0.0000
  3212 O155    43.1870  43.1870  25.3522   O3        1 RES1   0.0000
  3213 O159    45.9870  45.9870  28.1522   O3        1 RES1   0.0000
  3214 O6      35.8123  40.8595  37.3015   Oco2      1 RES1   0.0000
  3215 O8      44.4443  39.3971  37.3015   Oco2      1 RES1   0.0000
  3216 O54     37.9221  41.2055  35.5394   Oco2      1 RES1   0.0000
  3217 O56     42.3345  39.0511  35.5394   Oco2      1 RES1   0.0000
  3218 O110    45.9514  37.3051  36.8235   O3        1 RES1   0.0000
  3219 O120    37.3051  43.4331  16.4704   O3        1 RES1   0.0000
  3220 Zr3     42.1285  44.7855  44.3751   Zr        1 RES1   0.0000
  3221 Zr7     44.3751  42.1285  44.7855   Zr        1 RES1   0.0000
  3222 Zr11    44.7855  44.3751  42.1285   Zr        1 RES1   0.0000
  3223 Zr15    47.0455  44.3885  44.7989   Zr        1 RES1   0.0000
  3224 Zr19    44.7989  47.0455  44.3885   Zr        1 RES1   0.0000
  3225 Zr23    44.3885  44.7989  47.0455   Zr        1 RES1   0.0000
  3226 O1      39.3971  42.9551  35.8123   Oco2      1 RES1   0.0000
  3227 O3      40.8595  42.9551  44.4443   Oco2      1 RES1   0.0000
  3228 O5      35.8123  39.3971  42.9551   Oco2      1 RES1   0.0000
  3229 O7      44.4443  40.8595  42.9551   Oco2      1 RES1   0.0000
  3230 O9      42.9551  35.8123  39.3971   Oco2      1 RES1   0.0000
  3231 O11     42.9551  44.4443  40.8595   Oco2      1 RES1   0.0000
  3232 O49     39.0511  44.7172  37.9221   Oco2      1 RES1   0.0000
  3233 O51     41.2055  44.7172  42.3345   Oco2      1 RES1   0.0000
  3234 O53     37.9221  39.0511  44.7172   Oco2      1 RES1   0.0000
  3235 O55     42.3345  41.2055  44.7172   Oco2      1 RES1   0.0000
  3236 O57     44.7172  37.9221  39.0511   Oco2      1 RES1   0.0000
  3237 O59     44.7172  42.3345  41.2055   Oco2      1 RES1   0.0000
  3238 C49     39.0689  41.7299  35.6696   C.2       1 RES1   0.0000
  3239 C50     41.1877  38.5267  35.6696   C.2       1 RES1   0.0000
  3240 C51     41.1877  41.7299  44.5870   C.2       1 RES1   0.0000
  3241 C52     39.0689  38.5267  44.5870   C.2       1 RES1   0.0000
  3242 C53     35.6696  39.0689  41.7299   C.2       1 RES1   0.0000
  3243 C54     35.6696  41.1877  38.5267   C.2       1 RES1   0.0000
  3244 C55     44.5870  41.1877  41.7299   C.2       1 RES1   0.0000
  3245 C56     44.5870  39.0689  38.5267   C.2       1 RES1   0.0000
  3246 C57     41.7299  35.6696  39.0689   C.2       1 RES1   0.0000
  3247 C58     38.5267  35.6696  41.1877   C.2       1 RES1   0.0000
  3248 C59     41.7299  44.5870  41.1877   C.2       1 RES1   0.0000
  3249 C60     38.5267  44.5870  39.0689   C.2       1 RES1   0.0000
  3250 C73     40.2478  40.7793  35.6714   C.2       1 RES1   0.0000
  3251 C74     40.0088  39.4773  35.6714   C.2       1 RES1   0.0000
  3252 C75     40.0088  40.7793  44.5852   C.2       1 RES1   0.0000
  3253 C76     40.2478  39.4773  44.5852   C.2       1 RES1   0.0000
  3254 C77     35.6714  40.2478  40.7793   C.2       1 RES1   0.0000
  3255 C78     35.6714  40.0088  39.4773   C.2       1 RES1   0.0000
  3256 C79     44.5852  40.0088  40.7793   C.2       1 RES1   0.0000
  3257 C80     44.5852  40.2478  39.4773   C.2       1 RES1   0.0000
  3258 C81     40.7793  35.6714  40.2478   C.2       1 RES1   0.0000
  3259 C82     39.4773  35.6714  40.0088   C.2       1 RES1   0.0000
  3260 C83     40.7793  44.5852  40.0088   C.2       1 RES1   0.0000
  3261 C84     39.4773  44.5852  40.2478   C.2       1 RES1   0.0000
  3262 H25     41.1199  41.1021  35.6714   H         1 RES1   0.0000
  3263 H26     39.1367  39.1545  35.6714   H         1 RES1   0.0000
  3264 H27     39.1367  41.1021  44.5852   H         1 RES1   0.0000
  3265 H28     41.1199  39.1545  44.5852   H         1 RES1   0.0000
  3266 H29     35.6714  41.1199  41.1021   H         1 RES1   0.0000
  3267 H30     35.6714  39.1367  39.1545   H         1 RES1   0.0000
  3268 H31     44.5852  39.1367  41.1021   H         1 RES1   0.0000
  3269 H32     44.5852  41.1199  39.1545   H         1 RES1   0.0000
  3270 H33     41.1021  35.6714  41.1199   H         1 RES1   0.0000
  3271 H34     39.1545  35.6714  39.1367   H         1 RES1   0.0000
  3272 H35     41.1021  44.5852  39.1367   H         1 RES1   0.0000
  3273 H36     39.1545  44.5852  41.1199   H         1 RES1   0.0000
  3274 O99     43.2226  46.2225  45.7409   O3        1 RES1   0.0000
  3275 O103    45.7409  43.2226  46.2225   O3        1 RES1   0.0000
  3276 O107    46.2225  45.7409  43.2226   O3        1 RES1   0.0000
  3277 O111    45.9514  42.9515  43.4331   O3        1 RES1   0.0000
  3278 O115    43.4331  45.9514  42.9515   O3        1 RES1   0.0000
  3279 O119    42.9515  43.4331  45.9514   O3        1 RES1   0.0000
  3280 O155    43.1870  43.1870  43.1870   O3        1 RES1   0.0000
  3281 O159    45.9870  45.9870  45.9870   O3        1 RES1   0.0000
  3282 O120    37.3051  43.4331  34.3052   O3        1 RES1   0.0000
  3283 H7      38.3204  43.7816  34.1159   H7        1 RES1   0.0000
  3284 H7      43.3445  47.0212  42.7622   H7        1 RES1   0.0000
  3285 H7      46.9667  42.6030  43.6224   H7        1 RES1   0.0000
  3286 H7      46.4415  43.2226  47.0575   H7        1 RES1   0.0000
  3287 H7      43.1647  46.9207  46.5759   H7        1 RES1   0.0000
  3288 H7      38.1979  43.7396  15.9254   H7        1 RES1   0.0000
  3289 H7      43.6648  46.8665  24.5717   H7        1 RES1   0.0000
  3290 H7      46.8954  42.9515  25.0533   H7        1 RES1   0.0000
  3291 H7      46.6849  43.2226  28.9327   H7        1 RES1   0.0000
  3292 H7      43.4543  47.1376  28.4511   H7        1 RES1   0.0000
  3293 H7      43.3752  46.6496   6.4469   H7        1 RES1   0.0000
  3294 H7      46.6520  42.9515   6.9285   H7        1 RES1   0.0000
  3295 H7      46.8143  43.2226  10.7422   H7        1 RES1   0.0000
  3296 H7      43.1340  47.2923   9.8820   H7        1 RES1   0.0000
  3297 H7      43.3590  37.7488  37.9046   H7        1 RES1   0.0000
  3298 H7      38.3204  25.2498  34.1159   H7        1 RES1   0.0000
  3299 H7      44.0202  29.0152  42.7622   H7        1 RES1   0.0000
  3300 H7      46.9667  24.7682  43.6224   H7        1 RES1   0.0000
  3301 H7      47.1665  34.5157  37.5790   H7        1 RES1   0.0000
  3302 H7      46.4036  25.1603  47.0575   H7        1 RES1   0.0000
  3303 H7      43.3946  29.0669  46.5759   H7        1 RES1   0.0000
  3304 H7      43.4505  38.1102  19.4241   H7        1 RES1   0.0000
  3305 H7      37.9678  25.3708  15.6354   H7        1 RES1   0.0000
  3306 H7      43.1832  37.7386  33.7602   H7        1 RES1   0.0000
  3307 H7      47.0023  33.9211  34.0803   H7        1 RES1   0.0000
  3308 H7      43.9860  28.5469  24.2817   H7        1 RES1   0.0000
  3309 H7      46.9667  24.7682  25.4090   H7        1 RES1   0.0000
  3310 H7      47.2959  34.5157  19.3885   H7        1 RES1   0.0000
  3311 H7      46.6337  25.0813  28.9327   H7        1 RES1   0.0000
  3312 H7      43.7389  29.1780  28.4511   H7        1 RES1   0.0000
  3313 H7      43.1235  37.5027  15.6354   H7        1 RES1   0.0000
  3314 H7      46.9310  34.2696  15.8898   H7        1 RES1   0.0000
  3315 H7      43.5246  28.4780   6.2576   H7        1 RES1   0.0000
  3316 H7      46.8442  24.8102   7.2185   H7        1 RES1   0.0000
  3317 H7      46.7562  25.0393  10.7422   H7        1 RES1   0.0000
  3318 H7      43.1446  29.3284   9.5263   H7        1 RES1   0.0000
  3319 H7      43.3909  19.5469  38.0939   H7        1 RES1   0.0000
  3320 H7      37.8922   6.8649  34.1159   H7        1 RES1   0.0000
  3321 H7      44.3259  10.5883  42.4065   H7        1 RES1   0.0000
  3322 H7      46.5385   6.3833  43.6224   H7        1 RES1   0.0000
  3323 H7      47.1153  16.3744  37.5790   H7        1 RES1   0.0000
  3324 H7      46.2572   6.7627  46.7675   H7        1 RES1   0.0000
  3325 H7      43.1918  10.9244  46.7652   H7        1 RES1   0.0000
  3326 H7      43.9319  19.8146  19.7798   H7        1 RES1   0.0000
  3327 H7      37.8214   6.9732  15.9254   H7        1 RES1   0.0000
  3328 H7      43.5044  19.4190  33.4702   H7        1 RES1   0.0000
  3329 H7      46.8341  15.7755  34.0803   H7        1 RES1   0.0000
  3330 H7      43.8059  10.2818  24.0924   H7        1 RES1   0.0000
  3331 H7      46.5385   6.3833  25.4090   H7        1 RES1   0.0000
  3332 H7      47.2378  16.3324  19.3885   H7        1 RES1   0.0000
  3333 H7      46.4858   6.9732  28.9327   H7        1 RES1   0.0000
  3334 H7      43.7755  10.9832  28.7411   H7        1 RES1   0.0000
  3335 H7      43.1554  19.3008  15.4461   H7        1 RES1   0.0000
  3336 H7      46.7319  15.8550  15.8898   H7        1 RES1   0.0000
  3337 H7      43.4331  10.2818   6.1919   H7        1 RES1   0.0000
  3338 H7      46.4677   6.4916   7.2185   H7        1 RES1   0.0000
  3339 H7      46.3280   6.6544  10.7422   H7        1 RES1   0.0000
  3340 H7      42.9412  11.1945   9.2363   H7        1 RES1   0.0000
  3341 H7      37.7323  43.4145  37.9046   H7        1 RES1   0.0000
  3342 H7      19.9866  44.2234  33.7602   H7        1 RES1   0.0000
  3343 H7      25.1671  46.9344  43.1408   H7        1 RES1   0.0000
  3344 H7      33.9260  38.1696  43.9781   H7        1 RES1   0.0000
  3345 H7      29.0094  42.6450  43.9781   H7        1 RES1   0.0000
  3346 H7      28.2587  43.3436  47.2468   H7        1 RES1   0.0000
  3347 H7      34.4849  37.4055  47.2468   H7        1 RES1   0.0000
  3348 H7      25.0086  47.0870  46.2859   H7        1 RES1   0.0000
  3349 H7      37.9624  43.4935  19.7798   H7        1 RES1   0.0000
  3350 H7      20.0232  43.8634  15.6354   H7        1 RES1   0.0000
  3351 H7      33.9561  46.6816  37.5790   H7        1 RES1   0.0000
  3352 H7      34.1810  47.0568  34.0803   H7        1 RES1   0.0000
  3353 H7      25.2191  46.8159  24.5717   H7        1 RES1   0.0000
  3354 H7      34.2272  38.2458  25.0533   H7        1 RES1   0.0000
  3355 H7      28.8615  43.5313  25.0533   H7        1 RES1   0.0000
  3356 H7      28.4590  43.6529  29.2227   H7        1 RES1   0.0000
  3357 H7      34.4377  37.9747  28.9327   H7        1 RES1   0.0000
  3358 H7      24.9566  47.2055  28.0954   H7        1 RES1   0.0000
  3359 H7      33.6029  46.7239  19.3885   H7        1 RES1   0.0000
  3360 H7      34.1916  46.9277  15.8898   H7        1 RES1   0.0000
  3361 H7      25.3169  46.5930   6.4469   H7        1 RES1   0.0000
  3362 H7      34.2473  38.0033   6.9285   H7        1 RES1   0.0000
  3363 H7      28.4894  42.9515   6.7392   H7        1 RES1   0.0000
  3364 H7      28.9214  43.5711  10.7422   H7        1 RES1   0.0000
  3365 H7      34.0845  38.0170  10.3636   H7        1 RES1   0.0000
  3366 H7      24.9566  47.2055   9.8820   H7        1 RES1   0.0000
  3367 H7      25.0708  37.7112  37.9046   H7        1 RES1   0.0000
  3368 H7      37.7323  25.1247  37.9046   H7        1 RES1   0.0000
  3369 H7      20.0574  24.6997  34.1159   H7        1 RES1   0.0000
  3370 H7      37.8388  33.9567  43.1408   H7        1 RES1   0.0000
  3371 H7      37.6967  33.8066  46.5759   H7        1 RES1   0.0000
  3372 H7      24.9590  28.8111  43.4965   H7        1 RES1   0.0000
  3373 H7      33.8307  19.9858  44.2681   H7        1 RES1   0.0000
  3374 H7      28.6329  24.3264  43.9781   H7        1 RES1   0.0000
  3375 H7      29.0883  34.5157  37.8690   H7        1 RES1   0.0000
  3376 H7      28.1100  25.0757  47.2468   H7        1 RES1   0.0000
  3377 H7      34.3659  19.5406  47.2468   H7        1 RES1   0.0000
  3378 H7      25.1353  28.6620  46.7652   H7        1 RES1   0.0000
  3379 H7      24.9210  38.0526  19.4241   H7        1 RES1   0.0000
  3380 H7      37.9167  24.6929  19.4241   H7        1 RES1   0.0000
  3381 H7      19.6742  25.2862  15.4461   H7        1 RES1   0.0000
  3382 H7      24.3897  37.6133  34.1159   H7        1 RES1   0.0000
  3383 H7      37.7675  34.3052  24.5717   H7        1 RES1   0.0000
  3384 H7      33.8843  28.2475  38.0583   H7        1 RES1   0.0000
  3385 H7      37.9268  33.7276  28.4511   H7        1 RES1   0.0000
  3386 H7      29.1675  33.9211  34.0803   H7        1 RES1   0.0000
  3387 H7      34.1810  29.2220  34.0803   H7        1 RES1   0.0000
  3388 H7      25.1238  28.6321  24.2817   H7        1 RES1   0.0000
  3389 H7      34.1554  19.8117  24.5740   H7        1 RES1   0.0000
  3390 H7      28.6329  24.3264  25.0533   H7        1 RES1   0.0000
  3391 H7      29.4611  34.5157  19.3885   H7        1 RES1   0.0000
  3392 H7      28.2893  24.8012  29.2227   H7        1 RES1   0.0000
  3393 H7      34.4849  19.5707  29.4120   H7        1 RES1   0.0000
  3394 H7      24.7485  29.0822  28.4511   H7        1 RES1   0.0000
  3395 H7      24.6422  37.3390  15.6354   H7        1 RES1   0.0000
  3396 H7      37.1761  34.1842   6.2576   H7        1 RES1   0.0000
  3397 H7      33.6029  28.8891  19.3885   H7        1 RES1   0.0000
  3398 H7      37.9268  33.7276   9.5263   H7        1 RES1   0.0000
  3399 H7      28.5048  34.1486  15.4105   H7        1 RES1   0.0000
  3400 H7      34.2117  28.8504  15.5998   H7        1 RES1   0.0000
  3401 H7      25.3458  28.3909   6.2576   H7        1 RES1   0.0000
  3402 H7      34.0527  19.7446   6.7392   H7        1 RES1   0.0000
  3403 H7      28.3205  24.8046   6.7392   H7        1 RES1   0.0000
  3404 H7      28.4224  24.5975  10.0079   H7        1 RES1   0.0000
  3405 H7      33.8764  19.8937  10.0079   H7        1 RES1   0.0000
  3406 H7      24.7485  29.0822   9.5263   H7        1 RES1   0.0000
  3407 H7      24.9845  19.2962  38.0939   H7        1 RES1   0.0000
  3408 H7      37.5859   6.7271  37.6146   H7        1 RES1   0.0000
  3409 H7      19.7338   6.7229  34.1159   H7        1 RES1   0.0000
  3410 H7      37.4106  15.5718  43.1408   H7        1 RES1   0.0000
  3411 H7      37.4172  15.6127  46.5759   H7        1 RES1   0.0000
  3412 H7      24.6542   9.7709  42.7622   H7        1 RES1   0.0000
  3413 H7      28.3801   6.2413  43.6224   H7        1 RES1   0.0000
  3414 H7      28.7709  16.0943  37.8690   H7        1 RES1   0.0000
  3415 H7      28.0781   6.8738  47.0575   H7        1 RES1   0.0000
  3416 H7      25.0201  10.6143  46.7652   H7        1 RES1   0.0000
  3417 H7      24.2934  19.4115  19.4241   H7        1 RES1   0.0000
  3418 H7      37.6567   6.6188  19.4241   H7        1 RES1   0.0000
  3419 H7      19.7020   6.8484  15.9254   H7        1 RES1   0.0000
  3420 H7      24.0579  19.1654  34.1159   H7        1 RES1   0.0000
  3421 H7      37.3398  15.6801  24.5717   H7        1 RES1   0.0000
  3422 H7      33.5596   9.5558  37.8690   H7        1 RES1   0.0000
  3423 H7      37.6211  15.3007  28.0954   H7        1 RES1   0.0000
  3424 H7      28.7393  15.5362  34.0803   H7        1 RES1   0.0000
  3425 H7      33.6303   9.6229  33.7246   H7        1 RES1   0.0000
  3426 H7      25.1238   9.7663  24.2817   H7        1 RES1   0.0000
  3427 H7      28.3801   6.2413  25.4090   H7        1 RES1   0.0000
  3428 H7      28.9748  15.7823  19.3885   H7        1 RES1   0.0000
  3429 H7      28.1378   6.6379  28.9327   H7        1 RES1   0.0000
  3430 H7      24.5576  10.1036  28.4511   H7        1 RES1   0.0000
  3431 H7      24.4256  18.8734  15.6354   H7        1 RES1   0.0000
  3432 H7      37.2067  15.8838   6.4469   H7        1 RES1   0.0000
  3433 H7      33.3948   9.3768  19.7442   H7        1 RES1   0.0000
  3434 H7      37.6211  15.3007   9.8820   H7        1 RES1   0.0000
  3435 H7      28.5354  15.8482  15.5998   H7        1 RES1   0.0000
  3436 H7      34.0171  10.0431  15.4105   H7        1 RES1   0.0000
  3437 H7      25.2306  10.2204   6.2576   H7        1 RES1   0.0000
  3438 H7      28.3483   6.3668   7.2185   H7        1 RES1   0.0000
  3439 H7      28.1696   6.5124  10.3636   H7        1 RES1   0.0000
  3440 H7      24.4567  10.7083   9.5263   H7        1 RES1   0.0000
  3441 H7      19.5290  43.4160  38.0939   H7        1 RES1   0.0000
  3442 H7       7.0365  46.7412  42.7622   H7        1 RES1   0.0000
  3443 H7      15.7434  38.0949  43.6224   H7        1 RES1   0.0000
  3444 H7      10.6650  42.3649  44.2681   H7        1 RES1   0.0000
  3445 H7      10.0713  43.2226  47.3125   H7        1 RES1   0.0000
  3446 H7      16.2064  37.5495  47.0575   H7        1 RES1   0.0000
  3447 H7       6.9137  46.9170  46.2859   H7        1 RES1   0.0000
  3448 H7      19.7511  43.9773  19.7798   H7        1 RES1   0.0000
  3449 H7      15.5600  46.4354  37.5790   H7        1 RES1   0.0000
  3450 H7      16.0036  46.9700  34.0803   H7        1 RES1   0.0000
  3451 H7       7.0365  46.7412  24.9274   H7        1 RES1   0.0000
  3452 H7      15.7434  38.0949  25.4090   H7        1 RES1   0.0000
  3453 H7       9.6656  42.6180  24.7633   H7        1 RES1   0.0000
  3454 H7       9.7036  43.1612  29.4120   H7        1 RES1   0.0000
  3455 H7      16.0416  37.7285  28.9327   H7        1 RES1   0.0000
  3456 H7       6.8260  47.0123  28.0954   H7        1 RES1   0.0000
  3457 H7      15.4723  46.5307  19.3885   H7        1 RES1   0.0000
  3458 H7      16.0556  46.8515  15.8898   H7        1 RES1   0.0000
  3459 H7       7.1242  46.6459   6.7369   H7        1 RES1   0.0000
  3460 H7      15.9959  37.8206   6.9285   H7        1 RES1   0.0000
  3461 H7      10.2510  42.5800   6.7392   H7        1 RES1   0.0000
  3462 H7       9.2411  42.7733  11.0979   H7        1 RES1   0.0000
  3463 H7      15.9539  37.8238  10.3636   H7        1 RES1   0.0000
  3464 H7       6.8260  47.0123   9.8820   H7        1 RES1   0.0000
  3465 H7       6.6872  37.5189  37.6146   H7        1 RES1   0.0000
  3466 H7      19.3263  24.9908  38.0939   H7        1 RES1   0.0000
  3467 H7      19.5050  33.5149  43.4965   H7        1 RES1   0.0000
  3468 H7      19.4031  33.7220  46.7652   H7        1 RES1   0.0000
  3469 H7       6.8194  28.6275  43.1408   H7        1 RES1   0.0000
  3470 H7      15.6402  19.9196  43.9781   H7        1 RES1   0.0000
  3471 H7      10.1932  24.0469  43.6224   H7        1 RES1   0.0000
  3472 H7      10.3004  34.2414  38.0583   H7        1 RES1   0.0000
  3473 H7       9.9215  25.0464  47.2468   H7        1 RES1   0.0000
  3474 H7      16.3132  19.2606  47.2468   H7        1 RES1   0.0000
  3475 H7       6.7228  28.8370  46.2859   H7        1 RES1   0.0000
  3476 H7       6.5733  37.5805  19.4241   H7        1 RES1   0.0000
  3477 H7      19.4983  24.3116  19.4241   H7        1 RES1   0.0000
  3478 H7       6.3378  37.3344  34.1159   H7        1 RES1   0.0000
  3479 H7      18.9579  33.9337  24.0924   H7        1 RES1   0.0000
  3480 H7      15.5831  28.2396  37.8690   H7        1 RES1   0.0000
  3481 H7      19.4031  33.7220  28.9304   H7        1 RES1   0.0000
  3482 H7       9.6781  33.5751  33.7246   H7        1 RES1   0.0000
  3483 H7      15.4907  28.6631  34.0803   H7        1 RES1   0.0000
  3484 H7       6.9333  28.5659  24.5717   H7        1 RES1   0.0000
  3485 H7      15.5393  19.6257  25.0533   H7        1 RES1   0.0000
  3486 H7       9.6425  24.4222  25.0533   H7        1 RES1   0.0000
  3487 H7      10.0784  34.0002  20.0342   H7        1 RES1   0.0000
  3488 H7       9.5968  24.8723  29.2227   H7        1 RES1   0.0000
  3489 H7      15.7498  19.3546  28.9327   H7        1 RES1   0.0000
  3490 H7       6.6089  28.8986  28.0954   H7        1 RES1   0.0000
  3491 H7       6.4517  37.2728  15.9254   H7        1 RES1   0.0000
  3492 H7      19.1926  33.9931   6.2576   H7        1 RES1   0.0000
  3493 H7      15.2552  28.4170  19.3885   H7        1 RES1   0.0000
  3494 H7      19.5824  33.4475   9.2363   H7        1 RES1   0.0000
  3495 H7      10.0649  33.9953  15.4105   H7        1 RES1   0.0000
  3496 H7      15.8186  28.4857  15.5998   H7        1 RES1   0.0000
  3497 H7       7.1473  28.4501   6.4469   H7        1 RES1   0.0000
  3498 H7      15.7793  19.5856   6.9285   H7        1 RES1   0.0000
  3499 H7      10.0004  24.4751   6.9285   H7        1 RES1   0.0000
  3500 H7       9.6401  24.4048  10.7422   H7        1 RES1   0.0000
  3501 H7      15.7368  19.7101  10.3636   H7        1 RES1   0.0000
  3502 H7       6.6089  28.8986   9.8820   H7        1 RES1   0.0000
  3503 H7       6.5863  19.3902  37.6146   H7        1 RES1   0.0000
  3504 H7      19.4665   6.6023  37.6146   H7        1 RES1   0.0000
  3505 H7      19.2522  15.4298  43.1408   H7        1 RES1   0.0000
  3506 H7      19.3712  15.5201  46.5759   H7        1 RES1   0.0000
  3507 H7       6.7047  10.4585  42.7622   H7        1 RES1   0.0000
  3508 H7      10.5453   6.2413  43.6224   H7        1 RES1   0.0000
  3509 H7      10.2715  16.0393  37.8690   H7        1 RES1   0.0000
  3510 H7      10.0134   6.8548  47.0575   H7        1 RES1   0.0000
  3511 H7       6.8619  10.6682  46.5759   H7        1 RES1   0.0000
  3512 H7       6.4586  19.4115  19.4241   H7        1 RES1   0.0000
  3513 H7      19.4983   6.4768  19.4241   H7        1 RES1   0.0000
  3514 H7       6.2231  19.1654  34.1159   H7        1 RES1   0.0000
  3515 H7      18.9107  15.5297  24.5717   H7        1 RES1   0.0000
  3516 H7      15.3691   9.6220  37.5790   H7        1 RES1   0.0000
  3517 H7      19.1212  15.2586  28.4511   H7        1 RES1   0.0000
  3518 H7       9.8862  15.4518  34.0803   H7        1 RES1   0.0000
  3519 H7      15.3760  10.1407  34.0803   H7        1 RES1   0.0000
  3520 H7       6.8324  10.1264  24.5717   H7        1 RES1   0.0000
  3521 H7      10.1932   6.2121  25.4090   H7        1 RES1   0.0000
  3522 H7      10.1737  15.8164  19.7442   H7        1 RES1   0.0000
  3523 H7       9.9933   6.6123  28.9327   H7        1 RES1   0.0000
  3524 H7       6.6219  10.3975  28.4511   H7        1 RES1   0.0000
  3525 H7       6.3508  19.1441  15.9254   H7        1 RES1   0.0000
  3526 H7      19.0802  16.1090   6.2576   H7        1 RES1   0.0000
  3527 H7      15.2552   9.5604  19.3885   H7        1 RES1   0.0000
  3528 H7      19.4309  15.2842   9.5263   H7        1 RES1   0.0000
  3529 H7      10.0360  15.7932  15.5998   H7        1 RES1   0.0000
  3530 H7      15.8186   9.9839  15.5998   H7        1 RES1   0.0000
  3531 H7       7.0724  10.3971   6.4469   H7        1 RES1   0.0000
  3532 H7      10.2239   6.5837   6.9285   H7        1 RES1   0.0000
  3533 H7       9.9827   6.4832  10.7422   H7        1 RES1   0.0000
  3534 H7       6.4942  10.7296   9.8820   H7        1 RES1   0.0000
@<TRIPOS>BOND
     1     1     2   un
     2     1     3   un
     3     1     7   un
     4     1     9   un
     5     1    71   un
     6     1    77   un
     7     1    78   un
     8     1    79   un
     9     2     3   un
    10     2     5   un
    11     2     9   un
    12     2    73   un
    13     2    76   un
    14     2    78   un
    15     2    79   un
    16     3     5   un
    17     3     7   un
    18     3    75   un
    19     3    76   un
    20     3    77   un
    21     3    79   un
    22     4    10   un
    23     4    22   un
    24     4    72   un
    25     4    80   un
    26     4    86   un
    27     4    89   un
    28     4    92   un
    29     4    95   un
    30     4    96   un
    31     4   101   un
    32     4   102   un
    33     5     7   un
    34     5     9   un
    35     5    12   un
    36     5    24   un
    37     5    73   un
    38     5    75   un
    39     5    76   un
    40     5    82   un
    41     6    14   un
    42     6    26   un
    43     6    74   un
    44     6    83   un
    45     6    85   un
    46     6    88   un
    47     6    91   un
    48     6    94   un
    49     6    97   un
    50     6    99   un
    51     6   103   un
    52     7     9   un
    53     7    16   un
    54     7    28   un
    55     7    71   un
    56     7    75   un
    57     7    77   un
    58     7    82   un
    59     8    18   un
    60     8    30   un
    61     8    70   un
    62     8    81   un
    63     8    84   un
    64     8    87   un
    65     8    90   un
    66     8    93   un
    67     8    98   un
    68     8   100   un
    69     8   104   un
    70     9    20   un
    71     9    32   un
    72     9    71   un
    73     9    73   un
    74     9    78   un
    75     9    82   un
    76    10    34   un
    77    11    35   un
    78    11    90   un
    79    12    36   un
    80    13    37   un
    81    13    91   un
    82    14    38   un
    83    15    39   un
    84    15    92   un
    85    16    40   un
    86    17    41   un
    87    17    93   un
    88    18    42   un
    89    19    43   un
    90    19    94   un
    91    20    44   un
    92    21    45   un
    93    21    95   un
    94    22    45   un
    95    23    42   un
    96    23    90   un
    97    24    44   un
    98    25    43   un
    99    25    91   un
   100    26    37   un
   101    27    34   un
   102    27    92   un
   103    28    36   un
   104    29    35   un
   105    29    93   un
   106    30    41   un
   107    31    38   un
   108    31    94   un
   109    32    40   un
   110    33    39   un
   111    33    95   un
   112    34    46   un
   113    35    47   un
   114    36    48   un
   115    37    49   un
   116    38    50   un
   117    39    51   un
   118    40    52   un
   119    41    53   un
   120    42    54   un
   121    43    55   un
   122    44    56   un
   123    45    57   un
   124    46    47   un
   125    46    58   un
   126    47    59   un
   127    48    49   un
   128    48    60   un
   129    49    61   un
   130    50    51   un
   131    50    62   un
   132    51    63   un
   133    52    53   un
   134    52    64   un
   135    53    65   un
   136    54    55   un
   137    54    66   un
   138    55    67   un
   139    56    57   un
   140    56    68   un
   141    57    69   un
   142    70    84   un
   143    70    93   un
   144    71  3534   un
   145    72    86   un
   146    72    95   un
   147    73  3533   un
   148    74    88   un
   149    74    91   un
   150    76  3532   un
   151    77  3531   un
   152    80    92   un
   153    80    95   un
   154    80  3530   un
   155    81    90   un
   156    81    93   un
   157    81  3529   un
   158    83    91   un
   159    83    94   un
   160    84    87   un
   161    84    93   un
   162    84   104   un
   163    84   212   un
   164    84   224   un
   165    84   247   un
   166    85    88   un
   167    85    94   un
   168    85    99   un
   169    85   103   un
   170    85   437   un
   171    85   460   un
   172    85  1029   un
   173    85  1049   un
   174    85  1131   un
   175    85  1142   un
   176    86    89   un
   177    86    95   un
   178    86   102   un
   179    86   219   un
   180    86   246   un
   181    86  1337   un
   182    87    90   un
   183    87   100   un
   184    87   104   un
   185    87   224   un
   186    87   247   un
   187    87   343   un
   188    87   363   un
   189    87   448   un
   190    87   457   un
   191    88    91   un
   192    88   103   un
   193    88   427   un
   194    88   437   un
   195    88   460   un
   196    89    92   un
   197    89   101   un
   198    89   102   un
   199    89   127   un
   200    89   147   un
   201    89   219   un
   202    89   233   un
   203    89   244   un
   204    89   246   un
   205    90    93   un
   206    90   100   un
   207    90   207   un
   208    90   224   un
   209    90   345   un
   210    90   450   un
   211    90   457   un
   212    91    94   un
   213    91   347   un
   214    91   421   un
   215    91   427   un
   216    91   437   un
   217    92    95   un
   218    92   101   un
   219    92   129   un
   220    92   219   un
   221    92   236   un
   222    92   238   un
   223    92   244   un
   224    93   131   un
   225    93   207   un
   226    93   212   un
   227    93   224   un
   228    94    99   un
   229    94   421   un
   230    94   437   un
   231    94  1031   un
   232    94  1135   un
   233    94  1142   un
   234    95   219   un
   235    95   238   un
   236    95  1033   un
   237    95  1337   un
   238    96   150   un
   239    97  1052   un
   240    98   366   un
   241    99  3528   un
   242   101  3527   un
   243   103  3526   un
   244   104  3525   un
   245   105   106   un
   246   105   107   un
   247   105   111   un
   248   105   113   un
   249   105   204   un
   250   105   211   un
   251   105   213   un
   252   105   214   un
   253   106   107   un
   254   106   109   un
   255   106   113   un
   256   106   206   un
   257   106   210   un
   258   106   213   un
   259   106   214   un
   260   107   109   un
   261   107   111   un
   262   107   126   un
   263   107   146   un
   264   107   209   un
   265   107   210   un
   266   107   211   un
   267   107   214   un
   268   108   114   un
   269   108   132   un
   270   108   205   un
   271   108   215   un
   272   108   222   un
   273   108   226   un
   274   108   229   un
   275   108   232   un
   276   108   234   un
   277   108   241   un
   278   108   242   un
   279   109   111   un
   280   109   113   un
   281   109   116   un
   282   109   134   un
   283   109   148   un
   284   109   206   un
   285   109   209   un
   286   109   210   un
   287   109   217   un
   288   110   118   un
   289   110   128   un
   290   110   136   un
   291   110   208   un
   292   110   218   un
   293   110   221   un
   294   110   225   un
   295   110   228   un
   296   110   231   un
   297   110   235   un
   298   110   239   un
   299   110   243   un
   300   111   113   un
   301   111   120   un
   302   111   130   un
   303   111   138   un
   304   111   204   un
   305   111   209   un
   306   111   211   un
   307   111   217   un
   308   112   122   un
   309   112   140   un
   310   112   203   un
   311   112   216   un
   312   112   220   un
   313   112   223   un
   314   112   227   un
   315   112   230   un
   316   112   237   un
   317   112   240   un
   318   112   245   un
   319   113   124   un
   320   113   142   un
   321   113   204   un
   322   113   206   un
   323   113   213   un
   324   113   217   un
   325   114   167   un
   326   115   168   un
   327   115   227   un
   328   116   169   un
   329   117   170   un
   330   117   228   un
   331   118   171   un
   332   119   172   un
   333   119   229   un
   334   120   173   un
   335   121   174   un
   336   121   230   un
   337   122   175   un
   338   123   176   un
   339   123   231   un
   340   124   177   un
   341   125   178   un
   342   125   232   un
   343   126   149   un
   344   127   150   un
   345   128   151   un
   346   129   152   un
   347   130   153   un
   348   131   154   un
   349   132   178   un
   350   133   175   un
   351   133   227   un
   352   134   177   un
   353   135   176   un
   354   135   228   un
   355   136   170   un
   356   137   167   un
   357   137   229   un
   358   138   169   un
   359   139   168   un
   360   139   230   un
   361   140   174   un
   362   141   171   un
   363   141   231   un
   364   142   173   un
   365   143   172   un
   366   143   232   un
   367   144   154   un
   368   144   224   un
   369   145   151   un
   370   145   225   un
   371   146   153   un
   372   147   152   un
   373   148   149   un
   374   149   155   un
   375   150   156   un
   376   151   157   un
   377   152   158   un
   378   153   159   un
   379   154   160   un
   380   155   156   un
   381   155   161   un
   382   156   162   un
   383   157   158   un
   384   157   163   un
   385   158   164   un
   386   159   160   un
   387   159   165   un
   388   160   166   un
   389   167   179   un
   390   168   180   un
   391   169   181   un
   392   170   182   un
   393   171   183   un
   394   172   184   un
   395   173   185   un
   396   174   186   un
   397   175   187   un
   398   176   188   un
   399   177   189   un
   400   178   190   un
   401   179   180   un
   402   179   191   un
   403   180   192   un
   404   181   182   un
   405   181   193   un
   406   182   194   un
   407   183   184   un
   408   183   195   un
   409   184   196   un
   410   185   186   un
   411   185   197   un
   412   186   198   un
   413   187   188   un
   414   187   199   un
   415   188   200   un
   416   189   190   un
   417   189   201   un
   418   190   202   un
   419   203   220   un
   420   203   230   un
   421   204  3524   un
   422   205   222   un
   423   205   232   un
   424   206  3523   un
   425   207   224   un
   426   207  3522   un
   427   208   225   un
   428   208   228   un
   429   210  3521   un
   430   211  3520   un
   431   212   224   un
   432   215   229   un
   433   215   232   un
   434   215  3519   un
   435   216   227   un
   436   216   230   un
   437   216  3518   un
   438   218   228   un
   439   218   231   un
   440   219   238   un
   441   219   244   un
   442   219   246   un
   443   219  1046   un
   444   219  1165   un
   445   219  1179   un
   446   219  1337   un
   447   220   223   un
   448   220   230   un
   449   220   245   un
   450   220   301   un
   451   220   308   un
   452   220   320   un
   453   221   225   un
   454   221   231   un
   455   221   239   un
   456   221   243   un
   457   221   627   un
   458   221   660   un
   459   221  1168   un
   460   221  1196   un
   461   221  1319   un
   462   221  1322   un
   463   221  1336   un
   464   222   226   un
   465   222   232   un
   466   222   242   un
   467   222   306   un
   468   222   319   un
   469   222  1443   un
   470   223   227   un
   471   223   240   un
   472   223   245   un
   473   223   308   un
   474   223   320   un
   475   223   484   un
   476   223   514   un
   477   223   639   un
   478   223   654   un
   479   224   247   un
   480   224   457   un
   481   224   485   un
   482   224   497   un
   483   225   228   un
   484   225   243   un
   485   225   486   un
   486   225   615   un
   487   225   627   un
   488   225   640   un
   489   225   642   un
   490   225   660   un
   491   226   229   un
   492   226   241   un
   493   226   242   un
   494   226   258   un
   495   226   268   un
   496   226   306   un
   497   226   312   un
   498   226   318   un
   499   226   319   un
   500   227   230   un
   501   227   240   un
   502   227   296   un
   503   227   308   un
   504   227   490   un
   505   227   645   un
   506   227   654   un
   507   228   231   un
   508   228   492   un
   509   228   520   un
   510   228   608   un
   511   228   615   un
   512   228   627   un
   513   229   232   un
   514   229   241   un
   515   229   260   un
   516   229   306   un
   517   229   314   un
   518   229   315   un
   519   229   318   un
   520   230   262   un
   521   230   296   un
   522   230   301   un
   523   230   308   un
   524   231   239   un
   525   231   608   un
   526   231   627   un
   527   231  1176   un
   528   231  1327   un
   529   231  1336   un
   530   232   306   un
   531   232   315   un
   532   232  1178   un
   533   232  1443   un
   534   233  1247   un
   535   234   271   un
   536   235  1207   un
   537   236  1204   un
   538   237   523   un
   539   239  3517   un
   540   241  3516   un
   541   243  3515   un
   542   245  3514   un
   543   246  3513   un
   544   247  3512   un
   545   248   249   un
   546   248   250   un
   547   248   253   un
   548   248   254   un
   549   248   294   un
   550   248   300   un
   551   248   302   un
   552   248   303   un
   553   249   250   un
   554   249   251   un
   555   249   254   un
   556   249   295   un
   557   249   299   un
   558   249   302   un
   559   249   303   un
   560   250   251   un
   561   250   253   un
   562   250   257   un
   563   250   267   un
   564   250   298   un
   565   250   299   un
   566   250   300   un
   567   250   303   un
   568   251   253   un
   569   251   254   un
   570   251   255   un
   571   251   269   un
   572   251   295   un
   573   251   298   un
   574   251   299   un
   575   251   304   un
   576   252   259   un
   577   252   263   un
   578   252   297   un
   579   252   305   un
   580   252   307   un
   581   252   309   un
   582   252   310   un
   583   252   311   un
   584   252   313   un
   585   252   316   un
   586   252   317   un
   587   253   254   un
   588   253   261   un
   589   253   264   un
   590   253   294   un
   591   253   298   un
   592   253   300   un
   593   253   304   un
   594   254   294   un
   595   254   295   un
   596   254   302   un
   597   254   304   un
   598   255   288   un
   599   256   289   un
   600   256   310   un
   601   257   270   un
   602   258   271   un
   603   259   272   un
   604   260   273   un
   605   261   274   un
   606   262   275   un
   607   263   289   un
   608   264   288   un
   609   265   275   un
   610   265   308   un
   611   266   272   un
   612   266   309   un
   613   267   274   un
   614   268   273   un
   615   269   270   un
   616   270   276   un
   617   271   277   un
   618   272   278   un
   619   273   279   un
   620   274   280   un
   621   275   281   un
   622   276   277   un
   623   276   282   un
   624   277   283   un
   625   278   279   un
   626   278   284   un
   627   279   285   un
   628   280   281   un
   629   280   286   un
   630   281   287   un
   631   288   290   un
   632   289   291   un
   633   290   291   un
   634   290   292   un
   635   291   293   un
   636   294  3511   un
   637   295  3510   un
   638   296   308   un
   639   296  3509   un
   640   297   309   un
   641   297   310   un
   642   299  3508   un
   643   300  3507   un
   644   301   308   un
   645   305   310   un
   646   305   311   un
   647   306   315   un
   648   306   318   un
   649   306   319   un
   650   306  1193   un
   651   306  1350   un
   652   306  1360   un
   653   306  1443   un
   654   307   309   un
   655   307   311   un
   656   307   316   un
   657   307   317   un
   658   307   751   un
   659   307   768   un
   660   307  1353   un
   661   307  1432   un
   662   307  1435   un
   663   307  1442   un
   664   308   320   un
   665   308   654   un
   666   308   671   un
   667   308   681   un
   668   309   310   un
   669   309   317   un
   670   309   672   un
   671   309   742   un
   672   309   751   un
   673   309   756   un
   674   309   758   un
   675   309   768   un
   676   310   311   un
   677   310   676   un
   678   310   692   un
   679   310   736   un
   680   310   742   un
   681   310   751   un
   682   311   316   un
   683   311   736   un
   684   311   751   un
   685   311  1442   un
   686   312  1402   un
   687   313  1374   un
   688   314  1371   un
   689   316  3506   un
   690   317  3505   un
   691   319  3504   un
   692   320  3503   un
   693   321   322   un
   694   321   323   un
   695   321   327   un
   696   321   329   un
   697   321   420   un
   698   321   428   un
   699   321   429   un
   700   321   430   un
   701   322   323   un
   702   322   325   un
   703   322   329   un
   704   322   342   un
   705   322   362   un
   706   322   423   un
   707   322   426   un
   708   322   429   un
   709   322   430   un
   710   323   325   un
   711   323   327   un
   712   323   425   un
   713   323   426   un
   714   323   428   un
   715   323   430   un
   716   324   330   un
   717   324   344   un
   718   324   348   un
   719   324   422   un
   720   324   431   un
   721   324   438   un
   722   324   441   un
   723   324   444   un
   724   324   447   un
   725   324   449   un
   726   324   455   un
   727   324   456   un
   728   325   327   un
   729   325   329   un
   730   325   332   un
   731   325   346   un
   732   325   350   un
   733   325   423   un
   734   325   425   un
   735   325   426   un
   736   325   433   un
   737   326   334   un
   738   326   352   un
   739   326   424   un
   740   326   434   un
   741   326   436   un
   742   326   440   un
   743   326   443   un
   744   326   446   un
   745   326   451   un
   746   326   453   un
   747   326   458   un
   748   327   329   un
   749   327   336   un
   750   327   354   un
   751   327   420   un
   752   327   425   un
   753   327   428   un
   754   327   433   un
   755   328   338   un
   756   328   356   un
   757   328   419   un
   758   328   432   un
   759   328   435   un
   760   328   439   un
   761   328   442   un
   762   328   445   un
   763   328   452   un
   764   328   454   un
   765   328   459   un
   766   329   340   un
   767   329   358   un
   768   329   364   un
   769   329   420   un
   770   329   423   un
   771   329   429   un
   772   329   433   un
   773   330   383   un
   774   331   384   un
   775   331   442   un
   776   332   385   un
   777   333   386   un
   778   333   443   un
   779   334   387   un
   780   335   388   un
   781   335   444   un
   782   336   389   un
   783   337   390   un
   784   337   445   un
   785   338   391   un
   786   339   392   un
   787   339   446   un
   788   340   393   un
   789   341   394   un
   790   341   447   un
   791   342   365   un
   792   343   366   un
   793   344   367   un
   794   345   368   un
   795   346   369   un
   796   347   370   un
   797   348   394   un
   798   349   391   un
   799   349   442   un
   800   350   393   un
   801   351   392   un
   802   351   443   un
   803   352   386   un
   804   353   383   un
   805   353   444   un
   806   354   385   un
   807   355   384   un
   808   355   445   un
   809   356   390   un
   810   357   387   un
   811   357   446   un
   812   358   389   un
   813   359   388   un
   814   359   447   un
   815   360   370   un
   816   360   437   un
   817   361   367   un
   818   361   438   un
   819   362   369   un
   820   363   368   un
   821   364   365   un
   822   365   371   un
   823   366   372   un
   824   367   373   un
   825   368   374   un
   826   369   375   un
   827   370   376   un
   828   371   372   un
   829   371   377   un
   830   372   378   un
   831   373   374   un
   832   373   379   un
   833   374   380   un
   834   375   376   un
   835   375   381   un
   836   376   382   un
   837   383   395   un
   838   384   396   un
   839   385   397   un
   840   386   398   un
   841   387   399   un
   842   388   400   un
   843   389   401   un
   844   390   402   un
   845   391   403   un
   846   392   404   un
   847   393   405   un
   848   394   406   un
   849   395   396   un
   850   395   407   un
   851   396   408   un
   852   397   398   un
   853   397   409   un
   854   398   410   un
   855   399   400   un
   856   399   411   un
   857   400   412   un
   858   401   402   un
   859   401   413   un
   860   402   414   un
   861   403   404   un
   862   403   415   un
   863   404   416   un
   864   405   406   un
   865   405   417   un
   866   406   418   un
   867   419   435   un
   868   419   445   un
   869   420  3502   un
   870   421   437   un
   871   421  3501   un
   872   422   438   un
   873   422   447   un
   874   423  3500   un
   875   424   440   un
   876   424   443   un
   877   426  3499   un
   878   427   437   un
   879   427  3498   un
   880   428  3497   un
   881   431   444   un
   882   431   447   un
   883   431  3496   un
   884   432   442   un
   885   432   445   un
   886   432  3495   un
   887   434   443   un
   888   434   446   un
   889   435   439   un
   890   435   445   un
   891   435   459   un
   892   435   617   un
   893   435   630   un
   894   435   659   un
   895   436   440   un
   896   436   446   un
   897   436   453   un
   898   436   458   un
   899   436   827   un
   900   436   838   un
   901   436  1469   un
   902   436  1499   un
   903   436  1620   un
   904   436  1637   un
   905   437   460   un
   906   437  1142   un
   907   437  1470   un
   908   437  1482   un
   909   438   441   un
   910   438   447   un
   911   438   456   un
   912   438   624   un
   913   438   658   un
   914   438  1471   un
   915   438  1621   un
   916   438  1623   un
   917   438  1931   un
   918   439   442   un
   919   439   454   un
   920   439   459   un
   921   439   630   un
   922   439   659   un
   923   439   779   un
   924   439   789   un
   925   439   832   un
   926   439   837   un
   927   440   443   un
   928   440   458   un
   929   440   821   un
   930   440   827   un
   931   440   838   un
   932   441   444   un
   933   441   455   un
   934   441   456   un
   935   441   488   un
   936   441   518   un
   937   441   624   un
   938   441   641   un
   939   441   643   un
   940   441   656   un
   941   441   658   un
   942   442   445   un
   943   442   454   un
   944   442   611   un
   945   442   630   un
   946   442   781   un
   947   442   834   un
   948   442   837   un
   949   443   446   un
   950   443   783   un
   951   443   816   un
   952   443   821   un
   953   443   827   un
   954   444   447   un
   955   444   455   un
   956   444   494   un
   957   444   624   un
   958   444   647   un
   959   444   649   un
   960   444   656   un
   961   445   496   un
   962   445   611   un
   963   445   617   un
   964   445   630   un
   965   446   453   un
   966   446   816   un
   967   446   827   un
   968   446  1479   un
   969   446  1629   un
   970   446  1637   un
   971   447   624   un
   972   447   649   un
   973   447  1481   un
   974   447  1506   un
   975   447  1931   un
   976   448   565   un
   977   449   527   un
   978   450   524   un
   979   451  1508   un
   980   452   792   un
   981   453  3494   un
   982   455  3493   un
   983   458  3492   un
   984   459  3491   un
   985   461   462   un
   986   461   463   un
   987   461   467   un
   988   461   469   un
   989   461   607   un
   990   461   616   un
   991   461   618   un
   992   461   619   un
   993   462   463   un
   994   462   465   un
   995   462   469   un
   996   462   470   un
   997   462   483   un
   998   462   513   un
   999   462   610   un
  1000   462   614   un
  1001   462   618   un
  1002   462   619   un
  1003   463   465   un
  1004   463   467   un
  1005   463   487   un
  1006   463   498   un
  1007   463   517   un
  1008   463   613   un
  1009   463   614   un
  1010   463   616   un
  1011   463   619   un
  1012   464   471   un
  1013   464   489   un
  1014   464   499   un
  1015   464   609   un
  1016   464   620   un
  1017   464   628   un
  1018   464   632   un
  1019   464   635   un
  1020   464   638   un
  1021   464   644   un
  1022   464   652   un
  1023   464   653   un
  1024   465   467   un
  1025   465   469   un
  1026   465   473   un
  1027   465   491   un
  1028   465   501   un
  1029   465   519   un
  1030   465   610   un
  1031   465   613   un
  1032   465   614   un
  1033   465   622   un
  1034   466   475   un
  1035   466   493   un
  1036   466   503   un
  1037   466   612   un
  1038   466   623   un
  1039   466   626   un
  1040   466   631   un
  1041   466   634   un
  1042   466   637   un
  1043   466   646   un
  1044   466   650   un
  1045   466   655   un
  1046   467   469   un
  1047   467   477   un
  1048   467   495   un
  1049   467   505   un
  1050   467   607   un
  1051   467   613   un
  1052   467   616   un
  1053   467   622   un
  1054   468   479   un
  1055   468   507   un
  1056   468   606   un
  1057   468   621   un
  1058   468   625   un
  1059   468   629   un
  1060   468   633   un
  1061   468   636   un
  1062   468   648   un
  1063   468   651   un
  1064   468   657   un
  1065   469   481   un
  1066   469   509   un
  1067   469   521   un
  1068   469   607   un
  1069   469   610   un
  1070   469   618   un
  1071   469   622   un
  1072   470   564   un
  1073   471   566   un
  1074   472   567   un
  1075   472   633   un
  1076   473   568   un
  1077   474   569   un
  1078   474   634   un
  1079   475   570   un
  1080   476   571   un
  1081   476   635   un
  1082   477   572   un
  1083   478   573   un
  1084   478   636   un
  1085   479   574   un
  1086   480   575   un
  1087   480   637   un
  1088   481   576   un
  1089   482   577   un
  1090   482   638   un
  1091   483   522   un
  1092   484   523   un
  1093   485   524   un
  1094   486   525   un
  1095   487   526   un
  1096   488   527   un
  1097   489   528   un
  1098   490   529   un
  1099   491   530   un
  1100   492   531   un
  1101   493   532   un
  1102   494   533   un
  1103   495   534   un
  1104   496   535   un
  1105   497   565   un
  1106   498   564   un
  1107   499   577   un
  1108   500   574   un
  1109   500   633   un
  1110   501   576   un
  1111   502   575   un
  1112   502   634   un
  1113   503   569   un
  1114   504   566   un
  1115   504   635   un
  1116   505   568   un
  1117   506   567   un
  1118   506   636   un
  1119   507   573   un
  1120   508   570   un
  1121   508   637   un
  1122   509   572   un
  1123   510   571   un
  1124   510   638   un
  1125   511   531   un
  1126   511   627   un
  1127   512   528   un
  1128   512   628   un
  1129   513   530   un
  1130   514   529   un
  1131   515   535   un
  1132   515   630   un
  1133   516   532   un
  1134   516   631   un
  1135   517   534   un
  1136   518   533   un
  1137   519   526   un
  1138   520   525   un
  1139   521   522   un
  1140   522   536   un
  1141   523   537   un
  1142   524   538   un
  1143   525   539   un
  1144   526   540   un
  1145   527   541   un
  1146   528   542   un
  1147   529   543   un
  1148   530   544   un
  1149   531   545   un
  1150   532   546   un
  1151   533   547   un
  1152   534   548   un
  1153   535   549   un
  1154   536   537   un
  1155   536   550   un
  1156   537   551   un
  1157   538   539   un
  1158   538   552   un
  1159   539   553   un
  1160   540   541   un
  1161   540   554   un
  1162   541   555   un
  1163   542   543   un
  1164   542   556   un
  1165   543   557   un
  1166   544   545   un
  1167   544   558   un
  1168   545   559   un
  1169   546   547   un
  1170   546   560   un
  1171   547   561   un
  1172   548   549   un
  1173   548   562   un
  1174   549   563   un
  1175   564   578   un
  1176   565   579   un
  1177   566   580   un
  1178   567   581   un
  1179   568   582   un
  1180   569   583   un
  1181   570   584   un
  1182   571   585   un
  1183   572   586   un
  1184   573   587   un
  1185   574   588   un
  1186   575   589   un
  1187   576   590   un
  1188   577   591   un
  1189   578   579   un
  1190   578   592   un
  1191   579   593   un
  1192   580   581   un
  1193   580   594   un
  1194   581   595   un
  1195   582   583   un
  1196   582   596   un
  1197   583   597   un
  1198   584   585   un
  1199   584   598   un
  1200   585   599   un
  1201   586   587   un
  1202   586   600   un
  1203   587   601   un
  1204   588   589   un
  1205   588   602   un
  1206   589   603   un
  1207   590   591   un
  1208   590   604   un
  1209   591   605   un
  1210   606   625   un
  1211   606   636   un
  1212   607  3490   un
  1213   608   627   un
  1214   608  3489   un
  1215   609   628   un
  1216   609   638   un
  1217   610  3488   un
  1218   611   630   un
  1219   611  3487   un
  1220   612   631   un
  1221   612   634   un
  1222   614  3486   un
  1223   615   627   un
  1224   615  3485   un
  1225   616  3484   un
  1226   617   630   un
  1227   620   635   un
  1228   620   638   un
  1229   620  3483   un
  1230   621   633   un
  1231   621   636   un
  1232   621  3482   un
  1233   623   634   un
  1234   623   637   un
  1235   624   649   un
  1236   624   656   un
  1237   624   658   un
  1238   624  1496   un
  1239   624  1648   un
  1240   624  1666   un
  1241   624  1690   un
  1242   624  1931   un
  1243   625   629   un
  1244   625   636   un
  1245   625   657   un
  1246   625   744   un
  1247   625   752   un
  1248   625   767   un
  1249   626   631   un
  1250   626   637   un
  1251   626   650   un
  1252   626   655   un
  1253   626   925   un
  1254   626   943   un
  1255   626  1669   un
  1256   626  1711   un
  1257   626  1904   un
  1258   626  1910   un
  1259   626  1930   un
  1260   627   660   un
  1261   627  1336   un
  1262   627  1650   un
  1263   627  1670   un
  1264   627  1692   un
  1265   628   632   un
  1266   628   638   un
  1267   628   653   un
  1268   628   749   un
  1269   628   766   un
  1270   628  1671   un
  1271   628  1905   un
  1272   628  1911   un
  1273   628  2102   un
  1274   629   633   un
  1275   629   651   un
  1276   629   657   un
  1277   629   752   un
  1278   629   767   un
  1279   629   850   un
  1280   629   866   un
  1281   629   930   un
  1282   629   940   un
  1283   630   659   un
  1284   630   837   un
  1285   630   851   un
  1286   630   859   un
  1287   631   634   un
  1288   631   655   un
  1289   631   852   un
  1290   631   918   un
  1291   631   925   un
  1292   631   931   un
  1293   631   933   un
  1294   631   943   un
  1295   632   635   un
  1296   632   652   un
  1297   632   653   un
  1298   632   674   un
  1299   632   690   un
  1300   632   749   un
  1301   632   757   un
  1302   632   759   un
  1303   632   765   un
  1304   632   766   un
  1305   633   636   un
  1306   633   651   un
  1307   633   738   un
  1308   633   752   un
  1309   633   856   un
  1310   633   936   un
  1311   633   940   un
  1312   634   637   un
  1313   634   858   un
  1314   634   868   un
  1315   634   913   un
  1316   634   918   un
  1317   634   925   un
  1318   635   638   un
  1319   635   652   un
  1320   635   678   un
  1321   635   749   un
  1322   635   761   un
  1323   635   762   un
  1324   635   765   un
  1325   636   680   un
  1326   636   738   un
  1327   636   744   un
  1328   636   752   un
  1329   637   650   un
  1330   637   913   un
  1331   637   925   un
  1332   637  1687   un
  1333   637  1920   un
  1334   637  1930   un
  1335   638   749   un
  1336   638   762   un
  1337   638  1689   un
  1338   638  1725   un
  1339   638  2102   un
  1340   639   724   un
  1341   640  1807   un
  1342   641  1809   un
  1343   642  1802   un
  1344   643  1803   un
  1345   644   696   un
  1346   645   693   un
  1347   646  1729   un
  1348   647  1726   un
  1349   648   871   un
  1350   650  3481   un
  1351   652  3480   un
  1352   655  3479   un
  1353   657  3478   un
  1354   658  3477   un
  1355   659  3476   un
  1356   661   662   un
  1357   661   663   un
  1358   661   666   un
  1359   661   667   un
  1360   661   735   un
  1361   661   743   un
  1362   661   745   un
  1363   661   746   un
  1364   662   663   un
  1365   662   664   un
  1366   662   667   un
  1367   662   668   un
  1368   662   686   un
  1369   662   737   un
  1370   662   741   un
  1371   662   745   un
  1372   662   746   un
  1373   663   664   un
  1374   663   666   un
  1375   663   673   un
  1376   663   682   un
  1377   663   689   un
  1378   663   740   un
  1379   663   741   un
  1380   663   743   un
  1381   663   746   un
  1382   664   666   un
  1383   664   667   un
  1384   664   669   un
  1385   664   675   un
  1386   664   691   un
  1387   664   737   un
  1388   664   740   un
  1389   664   741   un
  1390   664   747   un
  1391   665   677   un
  1392   665   683   un
  1393   665   739   un
  1394   665   748   un
  1395   665   750   un
  1396   665   753   un
  1397   665   754   un
  1398   665   755   un
  1399   665   760   un
  1400   665   763   un
  1401   665   764   un
  1402   666   667   un
  1403   666   679   un
  1404   666   684   un
  1405   666   735   un
  1406   666   740   un
  1407   666   743   un
  1408   666   747   un
  1409   667   735   un
  1410   667   737   un
  1411   667   745   un
  1412   667   747   un
  1413   668   723   un
  1414   669   725   un
  1415   670   726   un
  1416   670   754   un
  1417   671   693   un
  1418   672   694   un
  1419   673   695   un
  1420   674   696   un
  1421   675   697   un
  1422   676   698   un
  1423   677   699   un
  1424   678   700   un
  1425   679   701   un
  1426   680   702   un
  1427   681   724   un
  1428   682   723   un
  1429   683   726   un
  1430   684   725   un
  1431   685   698   un
  1432   685   751   un
  1433   686   697   un
  1434   687   702   un
  1435   687   752   un
  1436   688   699   un
  1437   688   753   un
  1438   689   701   un
  1439   690   700   un
  1440   691   695   un
  1441   692   694   un
  1442   693   703   un
  1443   694   704   un
  1444   695   705   un
  1445   696   706   un
  1446   697   707   un
  1447   698   708   un
  1448   699   709   un
  1449   700   710   un
  1450   701   711   un
  1451   702   712   un
  1452   703   704   un
  1453   703   713   un
  1454   704   714   un
  1455   705   706   un
  1456   705   715   un
  1457   706   716   un
  1458   707   708   un
  1459   707   717   un
  1460   708   718   un
  1461   709   710   un
  1462   709   719   un
  1463   710   720   un
  1464   711   712   un
  1465   711   721   un
  1466   712   722   un
  1467   723   727   un
  1468   724   728   un
  1469   725   729   un
  1470   726   730   un
  1471   727   728   un
  1472   727   731   un
  1473   728   732   un
  1474   729   730   un
  1475   729   733   un
  1476   730   734   un
  1477   735  3475   un
  1478   736   751   un
  1479   736  3474   un
  1480   737  3473   un
  1481   738   752   un
  1482   738  3472   un
  1483   739   753   un
  1484   739   754   un
  1485   741  3471   un
  1486   742   751   un
  1487   742  3470   un
  1488   743  3469   un
  1489   744   752   un
  1490   748   754   un
  1491   748   755   un
  1492   749   762   un
  1493   749   765   un
  1494   749   766   un
  1495   749  1708   un
  1496   749  1942   un
  1497   749  1950   un
  1498   749  1964   un
  1499   749  2102   un
  1500   750   753   un
  1501   750   755   un
  1502   750   763   un
  1503   750   764   un
  1504   750   998   un
  1505   750  1006   un
  1506   750  1953   un
  1507   750  2088   un
  1508   750  2092   un
  1509   750  2101   un
  1510   751   768   un
  1511   751  1442   un
  1512   751  1944   un
  1513   751  1966   un
  1514   752   767   un
  1515   752   940   un
  1516   752   951   un
  1517   752   957   un
  1518   753   754   un
  1519   753   764   un
  1520   753   952   un
  1521   753   992   un
  1522   753   998   un
  1523   753   999   un
  1524   753  1001   un
  1525   753  1006   un
  1526   754   755   un
  1527   754   956   un
  1528   754   962   un
  1529   754   988   un
  1530   754   992   un
  1531   754   998   un
  1532   755   763   un
  1533   755   988   un
  1534   755   998   un
  1535   755  2101   un
  1536   756  2033   un
  1537   757  2035   un
  1538   758  2028   un
  1539   759  2029   un
  1540   760  1985   un
  1541   761  1982   un
  1542   763  3468   un
  1543   764  3467   un
  1544   766  3466   un
  1545   767  3465   un
  1546   769   770   un
  1547   769   771   un
  1548   769   774   un
  1549   769   775   un
  1550   769   815   un
  1551   769   822   un
  1552   769   823   un
  1553   769   824   un
  1554   770   771   un
  1555   770   773   un
  1556   770   775   un
  1557   770   778   un
  1558   770   788   un
  1559   770   818   un
  1560   770   820   un
  1561   770   823   un
  1562   770   824   un
  1563   771   773   un
  1564   771   774   un
  1565   771   819   un
  1566   771   820   un
  1567   771   822   un
  1568   771   824   un
  1569   772   780   un
  1570   772   784   un
  1571   772   817   un
  1572   772   825   un
  1573   772   828   un
  1574   772   829   un
  1575   772   830   un
  1576   772   831   un
  1577   772   833   un
  1578   772   835   un
  1579   772   836   un
  1580   773   774   un
  1581   773   775   un
  1582   773   782   un
  1583   773   785   un
  1584   773   818   un
  1585   773   819   un
  1586   773   820   un
  1587   773   826   un
  1588   774   775   un
  1589   774   815   un
  1590   774   819   un
  1591   774   822   un
  1592   774   826   un
  1593   775   776   un
  1594   775   790   un
  1595   775   815   un
  1596   775   818   un
  1597   775   823   un
  1598   775   826   un
  1599   776   809   un
  1600   777   810   un
  1601   777   831   un
  1602   778   791   un
  1603   779   792   un
  1604   780   793   un
  1605   781   794   un
  1606   782   795   un
  1607   783   796   un
  1608   784   810   un
  1609   785   809   un
  1610   786   796   un
  1611   786   827   un
  1612   787   793   un
  1613   787   828   un
  1614   788   795   un
  1615   789   794   un
  1616   790   791   un
  1617   791   797   un
  1618   792   798   un
  1619   793   799   un
  1620   794   800   un
  1621   795   801   un
  1622   796   802   un
  1623   797   798   un
  1624   797   803   un
  1625   798   804   un
  1626   799   800   un
  1627   799   805   un
  1628   800   806   un
  1629   801   802   un
  1630   801   807   un
  1631   802   808   un
  1632   809   811   un
  1633   810   812   un
  1634   811   812   un
  1635   811   813   un
  1636   812   814   un
  1637   815  3464   un
  1638   816   827   un
  1639   816  3463   un
  1640   817   828   un
  1641   817   831   un
  1642   818  3462   un
  1643   820  3461   un
  1644   821   827   un
  1645   821  3460   un
  1646   822  3459   un
  1647   825   830   un
  1648   825   831   un
  1649   825  3458   un
  1650   827   838   un
  1651   827  1637   un
  1652   827  2116   un
  1653   827  2126   un
  1654   828   829   un
  1655   828   831   un
  1656   828   836   un
  1657   828   924   un
  1658   828   942   un
  1659   828  2117   un
  1660   828  2197   un
  1661   828  2199   un
  1662   828  2371   un
  1663   829   830   un
  1664   829   835   un
  1665   829   836   un
  1666   829   854   un
  1667   829   924   un
  1668   829   932   un
  1669   829   934   un
  1670   829   941   un
  1671   829   942   un
  1672   830   831   un
  1673   830   835   un
  1674   830   924   un
  1675   830   937   un
  1676   830   941   un
  1677   831   924   un
  1678   831   937   un
  1679   831  2125   un
  1680   831  2137   un
  1681   831  2371   un
  1682   832   901   un
  1683   833   875   un
  1684   834   872   un
  1685   835  3457   un
  1686   839   840   un
  1687   839   841   un
  1688   839   844   un
  1689   839   845   un
  1690   839   912   un
  1691   839   919   un
  1692   839   920   un
  1693   839   921   un
  1694   840   841   un
  1695   840   843   un
  1696   840   845   un
  1697   840   846   un
  1698   840   849   un
  1699   840   865   un
  1700   840   915   un
  1701   840   917   un
  1702   840   920   un
  1703   840   921   un
  1704   841   843   un
  1705   841   844   un
  1706   841   853   un
  1707   841   860   un
  1708   841   916   un
  1709   841   917   un
  1710   841   919   un
  1711   841   921   un
  1712   842   855   un
  1713   842   861   un
  1714   842   914   un
  1715   842   922   un
  1716   842   926   un
  1717   842   927   un
  1718   842   928   un
  1719   842   929   un
  1720   842   935   un
  1721   842   938   un
  1722   842   939   un
  1723   843   844   un
  1724   843   845   un
  1725   843   857   un
  1726   843   862   un
  1727   843   867   un
  1728   843   915   un
  1729   843   916   un
  1730   843   917   un
  1731   843   923   un
  1732   844   845   un
  1733   844   912   un
  1734   844   916   un
  1735   844   919   un
  1736   844   923   un
  1737   845   847   un
  1738   845   869   un
  1739   845   912   un
  1740   845   915   un
  1741   845   920   un
  1742   845   923   un
  1743   846   900   un
  1744   847   902   un
  1745   848   903   un
  1746   848   929   un
  1747   849   870   un
  1748   850   871   un
  1749   851   872   un
  1750   852   873   un
  1751   853   874   un
  1752   854   875   un
  1753   855   876   un
  1754   856   877   un
  1755   857   878   un
  1756   858   879   un
  1757   859   901   un
  1758   860   900   un
  1759   861   903   un
  1760   862   902   un
  1761   863   879   un
  1762   863   925   un
  1763   864   876   un
  1764   864   926   un
  1765   865   878   un
  1766   866   877   un
  1767   867   874   un
  1768   868   873   un
  1769   869   870   un
  1770   870   880   un
  1771   871   881   un
  1772   872   882   un
  1773   873   883   un
  1774   874   884   un
  1775   875   885   un
  1776   876   886   un
  1777   877   887   un
  1778   878   888   un
  1779   879   889   un
  1780   880   881   un
  1781   880   890   un
  1782   881   891   un
  1783   882   883   un
  1784   882   892   un
  1785   883   893   un
  1786   884   885   un
  1787   884   894   un
  1788   885   895   un
  1789   886   887   un
  1790   886   896   un
  1791   887   897   un
  1792   888   889   un
  1793   888   898   un
  1794   889   899   un
  1795   900   904   un
  1796   901   905   un
  1797   902   906   un
  1798   903   907   un
  1799   904   905   un
  1800   904   908   un
  1801   905   909   un
  1802   906   907   un
  1803   906   910   un
  1804   907   911   un
  1805   912  3456   un
  1806   913   925   un
  1807   913  3455   un
  1808   914   926   un
  1809   914   929   un
  1810   915  3454   un
  1811   917  3453   un
  1812   918   925   un
  1813   918  3452   un
  1814   919  3451   un
  1815   922   928   un
  1816   922   929   un
  1817   922  3450   un
  1818   924   937   un
  1819   924   941   un
  1820   924   942   un
  1821   924  2130   un
  1822   924  2214   un
  1823   924  2236   un
  1824   924  2371   un
  1825   925   943   un
  1826   925  1930   un
  1827   925  2216   un
  1828   925  2222   un
  1829   925  2238   un
  1830   926   927   un
  1831   926   929   un
  1832   926   939   un
  1833   926   997   un
  1834   926  1005   un
  1835   926  2223   un
  1836   926  2356   un
  1837   926  2360   un
  1838   926  2474   un
  1839   927   928   un
  1840   927   938   un
  1841   927   939   un
  1842   927   954   un
  1843   927   997   un
  1844   927  1000   un
  1845   927  1002   un
  1846   927  1004   un
  1847   927  1005   un
  1848   928   929   un
  1849   928   938   un
  1850   928   997   un
  1851   928  1003   un
  1852   928  1004   un
  1853   929   997   un
  1854   929  1003   un
  1855   929  2235   un
  1856   929  2253   un
  1857   929  2474   un
  1858   930   982   un
  1859   931  2305   un
  1860   932  2307   un
  1861   933  2300   un
  1862   934  2301   un
  1863   935   966   un
  1864   936   963   un
  1865   938  3449   un
  1866   942  3448   un
  1867   944   945   un
  1868   944   946   un
  1869   944   948   un
  1870   944   949   un
  1871   944   987   un
  1872   944   993   un
  1873   944   994   un
  1874   944   995   un
  1875   945   946   un
  1876   945   947   un
  1877   945   949   un
  1878   945   950   un
  1879   945   960   un
  1880   945   989   un
  1881   945   991   un
  1882   945   994   un
  1883   945   995   un
  1884   946   947   un
  1885   946   948   un
  1886   946   953   un
  1887   946   958   un
  1888   946   990   un
  1889   946   991   un
  1890   946   993   un
  1891   946   995   un
  1892   947   948   un
  1893   947   949   un
  1894   947   955   un
  1895   947   961   un
  1896   947   989   un
  1897   947   990   un
  1898   947   991   un
  1899   947   996   un
  1900   948   949   un
  1901   948   987   un
  1902   948   990   un
  1903   948   993   un
  1904   948   996   un
  1905   949   987   un
  1906   949   989   un
  1907   949   994   un
  1908   949   996   un
  1909   950   981   un
  1910   951   963   un
  1911   952   964   un
  1912   953   965   un
  1913   954   966   un
  1914   955   967   un
  1915   956   968   un
  1916   957   982   un
  1917   958   981   un
  1918   959   968   un
  1919   959   998   un
  1920   960   967   un
  1921   961   965   un
  1922   962   964   un
  1923   963   969   un
  1924   964   970   un
  1925   965   971   un
  1926   966   972   un
  1927   967   973   un
  1928   968   974   un
  1929   969   970   un
  1930   969   975   un
  1931   970   976   un
  1932   971   972   un
  1933   971   977   un
  1934   972   978   un
  1935   973   974   un
  1936   973   979   un
  1937   974   980   un
  1938   981   983   un
  1939   982   984   un
  1940   983   984   un
  1941   983   985   un
  1942   984   986   un
  1943   987  3447   un
  1944   988   998   un
  1945   988  3446   un
  1946   989  3445   un
  1947   991  3444   un
  1948   992   998   un
  1949   992  3443   un
  1950   993  3442   un
  1951   997  1003   un
  1952   997  1004   un
  1953   997  1005   un
  1954   997  2244   un
  1955   997  2380   un
  1956   997  2392   un
  1957   997  2474   un
  1958   998  1006   un
  1959   998  2101   un
  1960   998  2382   un
  1961   998  2394   un
  1962   999  2429   un
  1963  1000  2431   un
  1964  1001  2424   un
  1965  1002  2425   un
  1966  1005  3441   un
  1967  1007  1008   un
  1968  1007  1009   un
  1969  1007  1013   un
  1970  1007  1015   un
  1971  1007  1028   un
  1972  1007  1048   un
  1973  1007  1106   un
  1974  1007  1112   un
  1975  1007  1113   un
  1976  1007  1114   un
  1977  1008  1009   un
  1978  1008  1011   un
  1979  1008  1015   un
  1980  1008  1108   un
  1981  1008  1111   un
  1982  1008  1113   un
  1983  1008  1114   un
  1984  1009  1011   un
  1985  1009  1013   un
  1986  1009  1110   un
  1987  1009  1111   un
  1988  1009  1112   un
  1989  1009  1114   un
  1990  1010  1016   un
  1991  1010  1034   un
  1992  1010  1107   un
  1993  1010  1115   un
  1994  1010  1121   un
  1995  1010  1124   un
  1996  1010  1127   un
  1997  1010  1130   un
  1998  1010  1132   un
  1999  1010  1138   un
  2000  1010  1139   un
  2001  1011  1013   un
  2002  1011  1015   un
  2003  1011  1018   un
  2004  1011  1036   un
  2005  1011  1108   un
  2006  1011  1110   un
  2007  1011  1111   un
  2008  1011  1117   un
  2009  1012  1020   un
  2010  1012  1038   un
  2011  1012  1109   un
  2012  1012  1118   un
  2013  1012  1120   un
  2014  1012  1123   un
  2015  1012  1126   un
  2016  1012  1129   un
  2017  1012  1133   un
  2018  1012  1136   un
  2019  1012  1140   un
  2020  1013  1015   un
  2021  1013  1022   un
  2022  1013  1040   un
  2023  1013  1050   un
  2024  1013  1106   un
  2025  1013  1110   un
  2026  1013  1112   un
  2027  1013  1117   un
  2028  1014  1024   un
  2029  1014  1030   un
  2030  1014  1042   un
  2031  1014  1105   un
  2032  1014  1116   un
  2033  1014  1119   un
  2034  1014  1122   un
  2035  1014  1125   un
  2036  1014  1128   un
  2037  1014  1134   un
  2038  1014  1137   un
  2039  1014  1141   un
  2040  1015  1026   un
  2041  1015  1032   un
  2042  1015  1044   un
  2043  1015  1106   un
  2044  1015  1108   un
  2045  1015  1113   un
  2046  1015  1117   un
  2047  1016  1069   un
  2048  1017  1070   un
  2049  1017  1125   un
  2050  1018  1071   un
  2051  1019  1072   un
  2052  1019  1126   un
  2053  1020  1073   un
  2054  1021  1074   un
  2055  1021  1127   un
  2056  1022  1075   un
  2057  1023  1076   un
  2058  1023  1128   un
  2059  1024  1077   un
  2060  1025  1078   un
  2061  1025  1129   un
  2062  1026  1079   un
  2063  1027  1080   un
  2064  1027  1130   un
  2065  1028  1051   un
  2066  1029  1052   un
  2067  1030  1053   un
  2068  1031  1054   un
  2069  1032  1055   un
  2070  1033  1056   un
  2071  1034  1080   un
  2072  1035  1077   un
  2073  1035  1125   un
  2074  1036  1079   un
  2075  1037  1078   un
  2076  1037  1126   un
  2077  1038  1072   un
  2078  1039  1069   un
  2079  1039  1127   un
  2080  1040  1071   un
  2081  1041  1070   un
  2082  1041  1128   un
  2083  1042  1076   un
  2084  1043  1073   un
  2085  1043  1129   un
  2086  1044  1075   un
  2087  1045  1074   un
  2088  1045  1130   un
  2089  1046  1056   un
  2090  1047  1053   un
  2091  1047  1119   un
  2092  1048  1055   un
  2093  1049  1054   un
  2094  1050  1051   un
  2095  1051  1057   un
  2096  1052  1058   un
  2097  1053  1059   un
  2098  1054  1060   un
  2099  1055  1061   un
  2100  1056  1062   un
  2101  1057  1058   un
  2102  1057  1063   un
  2103  1058  1064   un
  2104  1059  1060   un
  2105  1059  1065   un
  2106  1060  1066   un
  2107  1061  1062   un
  2108  1061  1067   un
  2109  1062  1068   un
  2110  1069  1081   un
  2111  1070  1082   un
  2112  1071  1083   un
  2113  1072  1084   un
  2114  1073  1085   un
  2115  1074  1086   un
  2116  1075  1087   un
  2117  1076  1088   un
  2118  1077  1089   un
  2119  1078  1090   un
  2120  1079  1091   un
  2121  1080  1092   un
  2122  1081  1082   un
  2123  1081  1093   un
  2124  1082  1094   un
  2125  1083  1084   un
  2126  1083  1095   un
  2127  1084  1096   un
  2128  1085  1086   un
  2129  1085  1097   un
  2130  1086  1098   un
  2131  1087  1088   un
  2132  1087  1099   un
  2133  1088  1100   un
  2134  1089  1090   un
  2135  1089  1101   un
  2136  1090  1102   un
  2137  1091  1092   un
  2138  1091  1103   un
  2139  1092  1104   un
  2140  1105  1119   un
  2141  1105  1128   un
  2142  1106  3440   un
  2143  1107  1121   un
  2144  1107  1130   un
  2145  1108  3439   un
  2146  1109  1123   un
  2147  1109  1126   un
  2148  1111  3438   un
  2149  1112  3437   un
  2150  1115  1127   un
  2151  1115  1130   un
  2152  1115  3436   un
  2153  1116  1125   un
  2154  1116  1128   un
  2155  1116  3435   un
  2156  1118  1126   un
  2157  1118  1129   un
  2158  1119  1122   un
  2159  1119  1128   un
  2160  1119  1141   un
  2161  1119  1166   un
  2162  1119  1297   un
  2163  1119  1309   un
  2164  1119  1318   un
  2165  1119  1321   un
  2166  1119  1339   un
  2167  1120  1123   un
  2168  1120  1129   un
  2169  1120  1136   un
  2170  1120  1140   un
  2171  1120  1609   un
  2172  1120  1638   un
  2173  1120  2487   un
  2174  1120  2497   un
  2175  1120  2537   un
  2176  1120  2542   un
  2177  1121  1124   un
  2178  1121  1130   un
  2179  1121  1139   un
  2180  1121  1304   un
  2181  1121  1338   un
  2182  1121  2643   un
  2183  1122  1125   un
  2184  1122  1137   un
  2185  1122  1141   un
  2186  1122  1309   un
  2187  1122  1339   un
  2188  1122  1473   un
  2189  1122  1503   un
  2190  1122  1622   un
  2191  1122  1624   un
  2192  1122  1634   un
  2193  1123  1126   un
  2194  1123  1140   un
  2195  1123  1599   un
  2196  1123  1609   un
  2197  1123  1638   un
  2198  1124  1127   un
  2199  1124  1138   un
  2200  1124  1139   un
  2201  1124  1170   un
  2202  1124  1200   un
  2203  1124  1304   un
  2204  1124  1320   un
  2205  1124  1334   un
  2206  1124  1338   un
  2207  1125  1128   un
  2208  1125  1137   un
  2209  1125  1292   un
  2210  1125  1309   un
  2211  1125  1475   un
  2212  1125  1626   un
  2213  1125  1634   un
  2214  1126  1129   un
  2215  1126  1477   un
  2216  1126  1593   un
  2217  1126  1599   un
  2218  1126  1609   un
  2219  1127  1130   un
  2220  1127  1138   un
  2221  1127  1172   un
  2222  1127  1304   un
  2223  1127  1325   un
  2224  1127  1328   un
  2225  1127  1334   un
  2226  1128  1174   un
  2227  1128  1203   un
  2228  1128  1292   un
  2229  1128  1297   un
  2230  1128  1309   un
  2231  1129  1136   un
  2232  1129  1593   un
  2233  1129  1609   un
  2234  1129  2489   un
  2235  1129  2539   un
  2236  1129  2542   un
  2237  1130  1304   un
  2238  1130  1328   un
  2239  1130  2491   un
  2240  1130  2643   un
  2241  1131  1550   un
  2242  1132  1209   un
  2243  1133  2500   un
  2244  1134  1512   un
  2245  1135  1509   un
  2246  1136  3434   un
  2247  1138  3433   un
  2248  1140  3432   un
  2249  1141  3431   un
  2250  1143  1144   un
  2251  1143  1145   un
  2252  1143  1149   un
  2253  1143  1151   un
  2254  1143  1167   un
  2255  1143  1180   un
  2256  1143  1195   un
  2257  1143  1289   un
  2258  1143  1296   un
  2259  1143  1298   un
  2260  1143  1299   un
  2261  1144  1145   un
  2262  1144  1147   un
  2263  1144  1151   un
  2264  1144  1291   un
  2265  1144  1295   un
  2266  1144  1298   un
  2267  1144  1299   un
  2268  1145  1147   un
  2269  1145  1149   un
  2270  1145  1152   un
  2271  1145  1169   un
  2272  1145  1199   un
  2273  1145  1294   un
  2274  1145  1295   un
  2275  1145  1296   un
  2276  1145  1299   un
  2277  1146  1153   un
  2278  1146  1181   un
  2279  1146  1290   un
  2280  1146  1300   un
  2281  1146  1307   un
  2282  1146  1311   un
  2283  1146  1314   un
  2284  1146  1317   un
  2285  1146  1323   un
  2286  1146  1331   un
  2287  1146  1332   un
  2288  1147  1149   un
  2289  1147  1151   un
  2290  1147  1155   un
  2291  1147  1183   un
  2292  1147  1201   un
  2293  1147  1291   un
  2294  1147  1294   un
  2295  1147  1295   un
  2296  1147  1302   un
  2297  1148  1157   un
  2298  1148  1171   un
  2299  1148  1185   un
  2300  1148  1293   un
  2301  1148  1303   un
  2302  1148  1306   un
  2303  1148  1310   un
  2304  1148  1313   un
  2305  1148  1316   un
  2306  1148  1324   un
  2307  1148  1329   un
  2308  1148  1333   un
  2309  1149  1151   un
  2310  1149  1159   un
  2311  1149  1173   un
  2312  1149  1187   un
  2313  1149  1202   un
  2314  1149  1289   un
  2315  1149  1294   un
  2316  1149  1296   un
  2317  1149  1302   un
  2318  1150  1161   un
  2319  1150  1175   un
  2320  1150  1189   un
  2321  1150  1288   un
  2322  1150  1301   un
  2323  1150  1305   un
  2324  1150  1308   un
  2325  1150  1312   un
  2326  1150  1315   un
  2327  1150  1326   un
  2328  1150  1330   un
  2329  1150  1335   un
  2330  1151  1163   un
  2331  1151  1177   un
  2332  1151  1191   un
  2333  1151  1289   un
  2334  1151  1291   un
  2335  1151  1298   un
  2336  1151  1302   un
  2337  1152  1246   un
  2338  1153  1248   un
  2339  1154  1249   un
  2340  1154  1312   un
  2341  1155  1250   un
  2342  1156  1251   un
  2343  1156  1313   un
  2344  1157  1252   un
  2345  1158  1253   un
  2346  1158  1314   un
  2347  1159  1254   un
  2348  1160  1255   un
  2349  1160  1315   un
  2350  1161  1256   un
  2351  1162  1257   un
  2352  1162  1316   un
  2353  1163  1258   un
  2354  1164  1259   un
  2355  1164  1317   un
  2356  1165  1204   un
  2357  1166  1205   un
  2358  1167  1206   un
  2359  1168  1207   un
  2360  1169  1208   un
  2361  1170  1209   un
  2362  1171  1210   un
  2363  1172  1211   un
  2364  1173  1212   un
  2365  1174  1213   un
  2366  1175  1214   un
  2367  1176  1215   un
  2368  1177  1216   un
  2369  1178  1217   un
  2370  1179  1247   un
  2371  1180  1246   un
  2372  1181  1259   un
  2373  1182  1256   un
  2374  1182  1312   un
  2375  1183  1258   un
  2376  1184  1257   un
  2377  1184  1313   un
  2378  1185  1251   un
  2379  1186  1248   un
  2380  1186  1314   un
  2381  1187  1250   un
  2382  1188  1249   un
  2383  1188  1315   un
  2384  1189  1255   un
  2385  1190  1252   un
  2386  1190  1316   un
  2387  1191  1254   un
  2388  1192  1253   un
  2389  1192  1317   un
  2390  1193  1217   un
  2391  1194  1214   un
  2392  1194  1305   un
  2393  1195  1216   un
  2394  1196  1215   un
  2395  1197  1213   un
  2396  1197  1309   un
  2397  1198  1210   un
  2398  1198  1310   un
  2399  1199  1212   un
  2400  1200  1211   un
  2401  1201  1208   un
  2402  1202  1206   un
  2403  1203  1205   un
  2404  1204  1218   un
  2405  1205  1219   un
  2406  1206  1220   un
  2407  1207  1221   un
  2408  1208  1222   un
  2409  1209  1223   un
  2410  1210  1224   un
  2411  1211  1225   un
  2412  1212  1226   un
  2413  1213  1227   un
  2414  1214  1228   un
  2415  1215  1229   un
  2416  1216  1230   un
  2417  1217  1231   un
  2418  1218  1219   un
  2419  1218  1232   un
  2420  1219  1233   un
  2421  1220  1221   un
  2422  1220  1234   un
  2423  1221  1235   un
  2424  1222  1223   un
  2425  1222  1236   un
  2426  1223  1237   un
  2427  1224  1225   un
  2428  1224  1238   un
  2429  1225  1239   un
  2430  1226  1227   un
  2431  1226  1240   un
  2432  1227  1241   un
  2433  1228  1229   un
  2434  1228  1242   un
  2435  1229  1243   un
  2436  1230  1231   un
  2437  1230  1244   un
  2438  1231  1245   un
  2439  1246  1260   un
  2440  1247  1261   un
  2441  1248  1262   un
  2442  1249  1263   un
  2443  1250  1264   un
  2444  1251  1265   un
  2445  1252  1266   un
  2446  1253  1267   un
  2447  1254  1268   un
  2448  1255  1269   un
  2449  1256  1270   un
  2450  1257  1271   un
  2451  1258  1272   un
  2452  1259  1273   un
  2453  1260  1261   un
  2454  1260  1274   un
  2455  1261  1275   un
  2456  1262  1263   un
  2457  1262  1276   un
  2458  1263  1277   un
  2459  1264  1265   un
  2460  1264  1278   un
  2461  1265  1279   un
  2462  1266  1267   un
  2463  1266  1280   un
  2464  1267  1281   un
  2465  1268  1269   un
  2466  1268  1282   un
  2467  1269  1283   un
  2468  1270  1271   un
  2469  1270  1284   un
  2470  1271  1285   un
  2471  1272  1273   un
  2472  1272  1286   un
  2473  1273  1287   un
  2474  1288  1305   un
  2475  1288  1315   un
  2476  1289  3430   un
  2477  1290  1307   un
  2478  1290  1317   un
  2479  1291  3429   un
  2480  1292  1309   un
  2481  1292  3428   un
  2482  1293  1310   un
  2483  1293  1313   un
  2484  1295  3427   un
  2485  1296  3426   un
  2486  1297  1309   un
  2487  1300  1314   un
  2488  1300  1317   un
  2489  1300  3425   un
  2490  1301  1312   un
  2491  1301  1315   un
  2492  1301  3424   un
  2493  1303  1313   un
  2494  1303  1316   un
  2495  1304  1328   un
  2496  1304  1334   un
  2497  1304  1338   un
  2498  1304  2494   un
  2499  1304  2553   un
  2500  1304  2563   un
  2501  1304  2643   un
  2502  1305  1308   un
  2503  1305  1315   un
  2504  1305  1335   un
  2505  1305  1351   un
  2506  1305  1420   un
  2507  1305  1427   un
  2508  1305  1431   un
  2509  1305  1434   un
  2510  1305  1445   un
  2511  1306  1310   un
  2512  1306  1316   un
  2513  1306  1329   un
  2514  1306  1333   un
  2515  1306  1891   un
  2516  1306  1934   un
  2517  1306  2556   un
  2518  1306  2570   un
  2519  1306  2635   un
  2520  1306  2637   un
  2521  1306  2642   un
  2522  1307  1311   un
  2523  1307  1317   un
  2524  1307  1332   un
  2525  1307  1425   un
  2526  1307  1444   un
  2527  1307  2704   un
  2528  1308  1312   un
  2529  1308  1330   un
  2530  1308  1335   un
  2531  1308  1427   un
  2532  1308  1445   un
  2533  1308  1673   un
  2534  1308  1715   un
  2535  1308  1906   un
  2536  1308  1912   un
  2537  1308  1926   un
  2538  1309  1339   un
  2539  1309  1634   un
  2540  1309  1652   un
  2541  1309  1674   un
  2542  1309  1694   un
  2543  1310  1313   un
  2544  1310  1333   un
  2545  1310  1675   un
  2546  1310  1879   un
  2547  1310  1891   un
  2548  1310  1907   un
  2549  1310  1913   un
  2550  1310  1934   un
  2551  1311  1314   un
  2552  1311  1331   un
  2553  1311  1332   un
  2554  1311  1355   un
  2555  1311  1367   un
  2556  1311  1425   un
  2557  1311  1433   un
  2558  1311  1441   un
  2559  1311  1444   un
  2560  1312  1315   un
  2561  1312  1330   un
  2562  1312  1415   un
  2563  1312  1427   un
  2564  1312  1679   un
  2565  1312  1916   un
  2566  1312  1926   un
  2567  1313  1316   un
  2568  1313  1681   un
  2569  1313  1721   un
  2570  1313  1872   un
  2571  1313  1879   un
  2572  1313  1891   un
  2573  1314  1317   un
  2574  1314  1331   un
  2575  1314  1357   un
  2576  1314  1425   un
  2577  1314  1437   un
  2578  1314  1438   un
  2579  1314  1441   un
  2580  1315  1359   un
  2581  1315  1370   un
  2582  1315  1415   un
  2583  1315  1420   un
  2584  1315  1427   un
  2585  1316  1329   un
  2586  1316  1872   un
  2587  1316  1891   un
  2588  1316  2560   un
  2589  1316  2639   un
  2590  1316  2642   un
  2591  1317  1425   un
  2592  1317  1438   un
  2593  1317  2562   un
  2594  1317  2704   un
  2595  1318  1799   un
  2596  1319  1801   un
  2597  1320  2606   un
  2598  1321  1806   un
  2599  1322  1807   un
  2600  1323  1376   un
  2601  1324  2578   un
  2602  1325  2575   un
  2603  1326  1733   un
  2604  1327  1730   un
  2605  1329  3423   un
  2606  1331  3422   un
  2607  1333  3421   un
  2608  1335  3420   un
  2609  1337  3419   un
  2610  1338  3418   un
  2611  1339  3417   un
  2612  1340  1341   un
  2613  1340  1342   un
  2614  1340  1345   un
  2615  1340  1346   un
  2616  1340  1352   un
  2617  1340  1361   un
  2618  1340  1413   un
  2619  1340  1419   un
  2620  1340  1421   un
  2621  1340  1422   un
  2622  1341  1342   un
  2623  1341  1343   un
  2624  1341  1346   un
  2625  1341  1414   un
  2626  1341  1418   un
  2627  1341  1421   un
  2628  1341  1422   un
  2629  1342  1343   un
  2630  1342  1345   un
  2631  1342  1347   un
  2632  1342  1354   un
  2633  1342  1366   un
  2634  1342  1417   un
  2635  1342  1418   un
  2636  1342  1419   un
  2637  1342  1422   un
  2638  1343  1345   un
  2639  1343  1346   un
  2640  1343  1348   un
  2641  1343  1368   un
  2642  1343  1414   un
  2643  1343  1417   un
  2644  1343  1418   un
  2645  1343  1423   un
  2646  1344  1356   un
  2647  1344  1362   un
  2648  1344  1416   un
  2649  1344  1424   un
  2650  1344  1426   un
  2651  1344  1428   un
  2652  1344  1429   un
  2653  1344  1430   un
  2654  1344  1436   un
  2655  1344  1439   un
  2656  1344  1440   un
  2657  1345  1346   un
  2658  1345  1358   un
  2659  1345  1363   un
  2660  1345  1369   un
  2661  1345  1413   un
  2662  1345  1417   un
  2663  1345  1419   un
  2664  1345  1423   un
  2665  1346  1413   un
  2666  1346  1414   un
  2667  1346  1421   un
  2668  1346  1423   un
  2669  1347  1401   un
  2670  1348  1403   un
  2671  1349  1404   un
  2672  1349  1429   un
  2673  1350  1371   un
  2674  1351  1372   un
  2675  1352  1373   un
  2676  1353  1374   un
  2677  1354  1375   un
  2678  1355  1376   un
  2679  1356  1377   un
  2680  1357  1378   un
  2681  1358  1379   un
  2682  1359  1380   un
  2683  1360  1402   un
  2684  1361  1401   un
  2685  1362  1404   un
  2686  1363  1403   un
  2687  1364  1380   un
  2688  1364  1427   un
  2689  1365  1377   un
  2690  1365  1428   un
  2691  1366  1379   un
  2692  1367  1378   un
  2693  1368  1375   un
  2694  1369  1373   un
  2695  1370  1372   un
  2696  1371  1381   un
  2697  1372  1382   un
  2698  1373  1383   un
  2699  1374  1384   un
  2700  1375  1385   un
  2701  1376  1386   un
  2702  1377  1387   un
  2703  1378  1388   un
  2704  1379  1389   un
  2705  1380  1390   un
  2706  1381  1382   un
  2707  1381  1391   un
  2708  1382  1392   un
  2709  1383  1384   un
  2710  1383  1393   un
  2711  1384  1394   un
  2712  1385  1386   un
  2713  1385  1395   un
  2714  1386  1396   un
  2715  1387  1388   un
  2716  1387  1397   un
  2717  1388  1398   un
  2718  1389  1390   un
  2719  1389  1399   un
  2720  1390  1400   un
  2721  1401  1405   un
  2722  1402  1406   un
  2723  1403  1407   un
  2724  1404  1408   un
  2725  1405  1406   un
  2726  1405  1409   un
  2727  1406  1410   un
  2728  1407  1408   un
  2729  1407  1411   un
  2730  1408  1412   un
  2731  1413  3416   un
  2732  1414  3415   un
  2733  1415  1427   un
  2734  1415  3414   un
  2735  1416  1428   un
  2736  1416  1429   un
  2737  1418  3413   un
  2738  1419  3412   un
  2739  1420  1427   un
  2740  1424  1429   un
  2741  1424  1430   un
  2742  1425  1438   un
  2743  1425  1441   un
  2744  1425  1444   un
  2745  1425  2567   un
  2746  1425  2652   un
  2747  1425  2658   un
  2748  1425  2704   un
  2749  1426  1428   un
  2750  1426  1430   un
  2751  1426  1439   un
  2752  1426  1440   un
  2753  1426  2082   un
  2754  1426  2105   un
  2755  1426  2655   un
  2756  1426  2700   un
  2757  1426  2702   un
  2758  1426  2703   un
  2759  1427  1445   un
  2760  1427  1926   un
  2761  1427  1946   un
  2762  1427  1954   un
  2763  1427  1968   un
  2764  1428  1429   un
  2765  1428  1440   un
  2766  1428  1955   un
  2767  1428  2073   un
  2768  1428  2082   un
  2769  1428  2089   un
  2770  1428  2093   un
  2771  1428  2105   un
  2772  1429  1430   un
  2773  1429  1959   un
  2774  1429  1979   un
  2775  1429  2067   un
  2776  1429  2073   un
  2777  1429  2082   un
  2778  1430  1439   un
  2779  1430  2067   un
  2780  1430  2082   un
  2781  1430  2703   un
  2782  1431  2025   un
  2783  1432  2027   un
  2784  1433  2683   un
  2785  1434  2032   un
  2786  1435  2033   un
  2787  1436  2667   un
  2788  1437  2664   un
  2789  1439  3411   un
  2790  1440  3410   un
  2791  1443  3409   un
  2792  1444  3408   un
  2793  1445  3407   un
  2794  1446  1447   un
  2795  1446  1448   un
  2796  1446  1452   un
  2797  1446  1454   un
  2798  1446  1455   un
  2799  1446  1468   un
  2800  1446  1498   un
  2801  1446  1592   un
  2802  1446  1600   un
  2803  1446  1601   un
  2804  1446  1602   un
  2805  1447  1448   un
  2806  1447  1450   un
  2807  1447  1454   un
  2808  1447  1472   un
  2809  1447  1483   un
  2810  1447  1502   un
  2811  1447  1595   un
  2812  1447  1598   un
  2813  1447  1601   un
  2814  1447  1602   un
  2815  1448  1450   un
  2816  1448  1452   un
  2817  1448  1597   un
  2818  1448  1598   un
  2819  1448  1600   un
  2820  1448  1602   un
  2821  1449  1456   un
  2822  1449  1474   un
  2823  1449  1484   un
  2824  1449  1594   un
  2825  1449  1603   un
  2826  1449  1610   un
  2827  1449  1613   un
  2828  1449  1616   un
  2829  1449  1619   un
  2830  1449  1625   un
  2831  1449  1632   un
  2832  1449  1633   un
  2833  1450  1452   un
  2834  1450  1454   un
  2835  1450  1458   un
  2836  1450  1476   un
  2837  1450  1486   un
  2838  1450  1595   un
  2839  1450  1597   un
  2840  1450  1598   un
  2841  1450  1605   un
  2842  1451  1460   un
  2843  1451  1488   un
  2844  1451  1596   un
  2845  1451  1606   un
  2846  1451  1608   un
  2847  1451  1612   un
  2848  1451  1615   un
  2849  1451  1618   un
  2850  1451  1627   un
  2851  1451  1630   un
  2852  1451  1635   un
  2853  1452  1454   un
  2854  1452  1462   un
  2855  1452  1490   un
  2856  1452  1504   un
  2857  1452  1592   un
  2858  1452  1597   un
  2859  1452  1600   un
  2860  1452  1605   un
  2861  1453  1464   un
  2862  1453  1478   un
  2863  1453  1492   un
  2864  1453  1591   un
  2865  1453  1604   un
  2866  1453  1607   un
  2867  1453  1611   un
  2868  1453  1614   un
  2869  1453  1617   un
  2870  1453  1628   un
  2871  1453  1631   un
  2872  1453  1636   un
  2873  1454  1466   un
  2874  1454  1480   un
  2875  1454  1494   un
  2876  1454  1505   un
  2877  1454  1592   un
  2878  1454  1595   un
  2879  1454  1601   un
  2880  1454  1605   un
  2881  1455  1549   un
  2882  1456  1551   un
  2883  1457  1552   un
  2884  1457  1614   un
  2885  1458  1553   un
  2886  1459  1554   un
  2887  1459  1615   un
  2888  1460  1555   un
  2889  1461  1556   un
  2890  1461  1616   un
  2891  1462  1557   un
  2892  1463  1558   un
  2893  1463  1617   un
  2894  1464  1559   un
  2895  1465  1560   un
  2896  1465  1618   un
  2897  1466  1561   un
  2898  1467  1562   un
  2899  1467  1619   un
  2900  1468  1507   un
  2901  1469  1508   un
  2902  1470  1509   un
  2903  1471  1510   un
  2904  1472  1511   un
  2905  1473  1512   un
  2906  1474  1513   un
  2907  1475  1514   un
  2908  1476  1515   un
  2909  1477  1516   un
  2910  1478  1517   un
  2911  1479  1518   un
  2912  1480  1519   un
  2913  1481  1520   un
  2914  1482  1550   un
  2915  1483  1549   un
  2916  1484  1562   un
  2917  1485  1559   un
  2918  1485  1614   un
  2919  1486  1561   un
  2920  1487  1560   un
  2921  1487  1615   un
  2922  1488  1554   un
  2923  1489  1551   un
  2924  1489  1616   un
  2925  1490  1553   un
  2926  1491  1552   un
  2927  1491  1617   un
  2928  1492  1558   un
  2929  1493  1555   un
  2930  1493  1618   un
  2931  1494  1557   un
  2932  1495  1556   un
  2933  1495  1619   un
  2934  1496  1520   un
  2935  1497  1517   un
  2936  1497  1607   un
  2937  1498  1519   un
  2938  1499  1518   un
  2939  1500  1516   un
  2940  1500  1609   un
  2941  1501  1513   un
  2942  1501  1610   un
  2943  1502  1515   un
  2944  1503  1514   un
  2945  1504  1507   un
  2946  1505  1511   un
  2947  1506  1510   un
  2948  1507  1521   un
  2949  1508  1522   un
  2950  1509  1523   un
  2951  1510  1524   un
  2952  1511  1525   un
  2953  1512  1526   un
  2954  1513  1527   un
  2955  1514  1528   un
  2956  1515  1529   un
  2957  1516  1530   un
  2958  1517  1531   un
  2959  1518  1532   un
  2960  1519  1533   un
  2961  1520  1534   un
  2962  1521  1522   un
  2963  1521  1535   un
  2964  1522  1536   un
  2965  1523  1524   un
  2966  1523  1537   un
  2967  1524  1538   un
  2968  1525  1526   un
  2969  1525  1539   un
  2970  1526  1540   un
  2971  1527  1528   un
  2972  1527  1541   un
  2973  1528  1542   un
  2974  1529  1530   un
  2975  1529  1543   un
  2976  1530  1544   un
  2977  1531  1532   un
  2978  1531  1545   un
  2979  1532  1546   un
  2980  1533  1534   un
  2981  1533  1547   un
  2982  1534  1548   un
  2983  1549  1563   un
  2984  1550  1564   un
  2985  1551  1565   un
  2986  1552  1566   un
  2987  1553  1567   un
  2988  1554  1568   un
  2989  1555  1569   un
  2990  1556  1570   un
  2991  1557  1571   un
  2992  1558  1572   un
  2993  1559  1573   un
  2994  1560  1574   un
  2995  1561  1575   un
  2996  1562  1576   un
  2997  1563  1564   un
  2998  1563  1577   un
  2999  1564  1578   un
  3000  1565  1566   un
  3001  1565  1579   un
  3002  1566  1580   un
  3003  1567  1568   un
  3004  1567  1581   un
  3005  1568  1582   un
  3006  1569  1570   un
  3007  1569  1583   un
  3008  1570  1584   un
  3009  1571  1572   un
  3010  1571  1585   un
  3011  1572  1586   un
  3012  1573  1574   un
  3013  1573  1587   un
  3014  1574  1588   un
  3015  1575  1576   un
  3016  1575  1589   un
  3017  1576  1590   un
  3018  1591  1607   un
  3019  1591  1617   un
  3020  1592  3406   un
  3021  1593  1609   un
  3022  1593  3405   un
  3023  1594  1610   un
  3024  1594  1619   un
  3025  1595  3404   un
  3026  1596  1612   un
  3027  1596  1615   un
  3028  1598  3403   un
  3029  1599  1609   un
  3030  1599  3402   un
  3031  1600  3401   un
  3032  1603  1616   un
  3033  1603  1619   un
  3034  1603  3400   un
  3035  1604  1614   un
  3036  1604  1617   un
  3037  1604  3399   un
  3038  1606  1615   un
  3039  1606  1618   un
  3040  1607  1611   un
  3041  1607  1617   un
  3042  1607  1636   un
  3043  1607  1667   un
  3044  1607  1881   un
  3045  1607  1894   un
  3046  1607  1903   un
  3047  1607  1909   un
  3048  1607  1933   un
  3049  1608  1612   un
  3050  1608  1618   un
  3051  1608  1630   un
  3052  1608  1635   un
  3053  1608  2192   un
  3054  1608  2206   un
  3055  1608  2717   un
  3056  1608  2733   un
  3057  1608  2793   un
  3058  1608  2803   un
  3059  1609  1638   un
  3060  1609  2542   un
  3061  1609  2718   un
  3062  1609  2726   un
  3063  1610  1613   un
  3064  1610  1619   un
  3065  1610  1633   un
  3066  1610  1888   un
  3067  1610  1932   un
  3068  1610  2719   un
  3069  1610  2794   un
  3070  1610  2796   un
  3071  1610  2966   un
  3072  1611  1614   un
  3073  1611  1631   un
  3074  1611  1636   un
  3075  1611  1894   un
  3076  1611  1933   un
  3077  1611  2119   un
  3078  1611  2135   un
  3079  1611  2198   un
  3080  1611  2200   un
  3081  1611  2205   un
  3082  1612  1615   un
  3083  1612  1635   un
  3084  1612  2186   un
  3085  1612  2192   un
  3086  1612  2206   un
  3087  1613  1616   un
  3088  1613  1632   un
  3089  1613  1633   un
  3090  1613  1677   un
  3091  1613  1719   un
  3092  1613  1888   un
  3093  1613  1908   un
  3094  1613  1914   un
  3095  1613  1928   un
  3096  1613  1932   un
  3097  1614  1617   un
  3098  1614  1631   un
  3099  1614  1875   un
  3100  1614  1894   un
  3101  1614  2121   un
  3102  1614  2202   un
  3103  1614  2205   un
  3104  1615  1618   un
  3105  1615  2123   un
  3106  1615  2181   un
  3107  1615  2186   un
  3108  1615  2192   un
  3109  1616  1619   un
  3110  1616  1632   un
  3111  1616  1683   un
  3112  1616  1888   un
  3113  1616  1918   un
  3114  1616  1921   un
  3115  1616  1928   un
  3116  1617  1685   un
  3117  1617  1723   un
  3118  1617  1875   un
  3119  1617  1881   un
  3120  1617  1894   un
  3121  1618  1630   un
  3122  1618  2181   un
  3123  1618  2192   un
  3124  1618  2723   un
  3125  1618  2799   un
  3126  1618  2803   un
  3127  1619  1888   un
  3128  1619  1921   un
  3129  1619  2725   un
  3130  1619  2736   un
  3131  1619  2966   un
  3132  1620  2169   un
  3133  1621  1803   un
  3134  1622  1805   un
  3135  1623  1798   un
  3136  1624  1799   un
  3137  1625  1737   un
  3138  1626  1734   un
  3139  1627  2738   un
  3140  1628  2141   un
  3141  1629  2138   un
  3142  1630  3398   un
  3143  1632  3397   un
  3144  1635  3396   un
  3145  1636  3395   un
  3146  1639  1640   un
  3147  1639  1641   un
  3148  1639  1645   un
  3149  1639  1647   un
  3150  1639  1649   un
  3151  1639  1668   un
  3152  1639  1691   un
  3153  1639  1710   un
  3154  1639  1871   un
  3155  1639  1880   un
  3156  1639  1882   un
  3157  1639  1883   un
  3158  1640  1641   un
  3159  1640  1643   un
  3160  1640  1647   un
  3161  1640  1651   un
  3162  1640  1672   un
  3163  1640  1693   un
  3164  1640  1714   un
  3165  1640  1874   un
  3166  1640  1878   un
  3167  1640  1882   un
  3168  1640  1883   un
  3169  1641  1643   un
  3170  1641  1645   un
  3171  1641  1653   un
  3172  1641  1676   un
  3173  1641  1695   un
  3174  1641  1718   un
  3175  1641  1877   un
  3176  1641  1878   un
  3177  1641  1880   un
  3178  1641  1883   un
  3179  1642  1654   un
  3180  1642  1678   un
  3181  1642  1696   un
  3182  1642  1873   un
  3183  1642  1884   un
  3184  1642  1892   un
  3185  1642  1896   un
  3186  1642  1899   un
  3187  1642  1902   un
  3188  1642  1915   un
  3189  1642  1924   un
  3190  1642  1925   un
  3191  1643  1645   un
  3192  1643  1647   un
  3193  1643  1656   un
  3194  1643  1680   un
  3195  1643  1698   un
  3196  1643  1720   un
  3197  1643  1874   un
  3198  1643  1877   un
  3199  1643  1878   un
  3200  1643  1886   un
  3201  1644  1658   un
  3202  1644  1682   un
  3203  1644  1700   un
  3204  1644  1876   un
  3205  1644  1887   un
  3206  1644  1890   un
  3207  1644  1895   un
  3208  1644  1898   un
  3209  1644  1901   un
  3210  1644  1917   un
  3211  1644  1922   un
  3212  1644  1927   un
  3213  1645  1647   un
  3214  1645  1660   un
  3215  1645  1684   un
  3216  1645  1702   un
  3217  1645  1722   un
  3218  1645  1871   un
  3219  1645  1877   un
  3220  1645  1880   un
  3221  1645  1886   un
  3222  1646  1662   un
  3223  1646  1686   un
  3224  1646  1704   un
  3225  1646  1870   un
  3226  1646  1885   un
  3227  1646  1889   un
  3228  1646  1893   un
  3229  1646  1897   un
  3230  1646  1900   un
  3231  1646  1919   un
  3232  1646  1923   un
  3233  1646  1929   un
  3234  1647  1664   un
  3235  1647  1688   un
  3236  1647  1706   un
  3237  1647  1724   un
  3238  1647  1871   un
  3239  1647  1874   un
  3240  1647  1882   un
  3241  1647  1886   un
  3242  1648  1798   un
  3243  1649  1800   un
  3244  1650  1802   un
  3245  1651  1804   un
  3246  1652  1806   un
  3247  1653  1808   un
  3248  1654  1810   un
  3249  1655  1811   un
  3250  1655  1897   un
  3251  1656  1812   un
  3252  1657  1813   un
  3253  1657  1898   un
  3254  1658  1814   un
  3255  1659  1815   un
  3256  1659  1899   un
  3257  1660  1816   un
  3258  1661  1817   un
  3259  1661  1900   un
  3260  1662  1818   un
  3261  1663  1819   un
  3262  1663  1901   un
  3263  1664  1820   un
  3264  1665  1821   un
  3265  1665  1902   un
  3266  1666  1726   un
  3267  1667  1727   un
  3268  1668  1728   un
  3269  1669  1729   un
  3270  1670  1730   un
  3271  1671  1731   un
  3272  1672  1732   un
  3273  1673  1733   un
  3274  1674  1734   un
  3275  1675  1735   un
  3276  1676  1736   un
  3277  1677  1737   un
  3278  1678  1738   un
  3279  1679  1739   un
  3280  1680  1740   un
  3281  1681  1741   un
  3282  1682  1742   un
  3283  1683  1743   un
  3284  1684  1744   un
  3285  1685  1745   un
  3286  1686  1746   un
  3287  1687  1747   un
  3288  1688  1748   un
  3289  1689  1749   un
  3290  1690  1809   un
  3291  1691  1808   un
  3292  1692  1801   un
  3293  1693  1800   un
  3294  1694  1805   un
  3295  1695  1804   un
  3296  1696  1821   un
  3297  1697  1818   un
  3298  1697  1897   un
  3299  1698  1820   un
  3300  1699  1819   un
  3301  1699  1898   un
  3302  1700  1813   un
  3303  1701  1810   un
  3304  1701  1899   un
  3305  1702  1812   un
  3306  1703  1811   un
  3307  1703  1900   un
  3308  1704  1817   un
  3309  1705  1814   un
  3310  1705  1901   un
  3311  1706  1816   un
  3312  1707  1815   un
  3313  1707  1902   un
  3314  1708  1749   un
  3315  1709  1746   un
  3316  1709  1889   un
  3317  1710  1748   un
  3318  1711  1747   un
  3319  1712  1741   un
  3320  1712  1891   un
  3321  1713  1738   un
  3322  1713  1892   un
  3323  1714  1740   un
  3324  1715  1739   un
  3325  1716  1745   un
  3326  1716  1894   un
  3327  1717  1742   un
  3328  1717  1895   un
  3329  1718  1744   un
  3330  1719  1743   un
  3331  1720  1736   un
  3332  1721  1735   un
  3333  1722  1728   un
  3334  1723  1727   un
  3335  1724  1732   un
  3336  1725  1731   un
  3337  1726  1750   un
  3338  1727  1751   un
  3339  1728  1752   un
  3340  1729  1753   un
  3341  1730  1754   un
  3342  1731  1755   un
  3343  1732  1756   un
  3344  1733  1757   un
  3345  1734  1758   un
  3346  1735  1759   un
  3347  1736  1760   un
  3348  1737  1761   un
  3349  1738  1762   un
  3350  1739  1763   un
  3351  1740  1764   un
  3352  1741  1765   un
  3353  1742  1766   un
  3354  1743  1767   un
  3355  1744  1768   un
  3356  1745  1769   un
  3357  1746  1770   un
  3358  1747  1771   un
  3359  1748  1772   un
  3360  1749  1773   un
  3361  1750  1751   un
  3362  1750  1774   un
  3363  1751  1775   un
  3364  1752  1753   un
  3365  1752  1776   un
  3366  1753  1777   un
  3367  1754  1755   un
  3368  1754  1778   un
  3369  1755  1779   un
  3370  1756  1757   un
  3371  1756  1780   un
  3372  1757  1781   un
  3373  1758  1759   un
  3374  1758  1782   un
  3375  1759  1783   un
  3376  1760  1761   un
  3377  1760  1784   un
  3378  1761  1785   un
  3379  1762  1763   un
  3380  1762  1786   un
  3381  1763  1787   un
  3382  1764  1765   un
  3383  1764  1788   un
  3384  1765  1789   un
  3385  1766  1767   un
  3386  1766  1790   un
  3387  1767  1791   un
  3388  1768  1769   un
  3389  1768  1792   un
  3390  1769  1793   un
  3391  1770  1771   un
  3392  1770  1794   un
  3393  1771  1795   un
  3394  1772  1773   un
  3395  1772  1796   un
  3396  1773  1797   un
  3397  1798  1822   un
  3398  1799  1823   un
  3399  1800  1824   un
  3400  1801  1825   un
  3401  1802  1826   un
  3402  1803  1827   un
  3403  1804  1828   un
  3404  1805  1829   un
  3405  1806  1830   un
  3406  1807  1831   un
  3407  1808  1832   un
  3408  1809  1833   un
  3409  1810  1834   un
  3410  1811  1835   un
  3411  1812  1836   un
  3412  1813  1837   un
  3413  1814  1838   un
  3414  1815  1839   un
  3415  1816  1840   un
  3416  1817  1841   un
  3417  1818  1842   un
  3418  1819  1843   un
  3419  1820  1844   un
  3420  1821  1845   un
  3421  1822  1823   un
  3422  1822  1846   un
  3423  1823  1847   un
  3424  1824  1825   un
  3425  1824  1848   un
  3426  1825  1849   un
  3427  1826  1827   un
  3428  1826  1850   un
  3429  1827  1851   un
  3430  1828  1829   un
  3431  1828  1852   un
  3432  1829  1853   un
  3433  1830  1831   un
  3434  1830  1854   un
  3435  1831  1855   un
  3436  1832  1833   un
  3437  1832  1856   un
  3438  1833  1857   un
  3439  1834  1835   un
  3440  1834  1858   un
  3441  1835  1859   un
  3442  1836  1837   un
  3443  1836  1860   un
  3444  1837  1861   un
  3445  1838  1839   un
  3446  1838  1862   un
  3447  1839  1863   un
  3448  1840  1841   un
  3449  1840  1864   un
  3450  1841  1865   un
  3451  1842  1843   un
  3452  1842  1866   un
  3453  1843  1867   un
  3454  1844  1845   un
  3455  1844  1868   un
  3456  1845  1869   un
  3457  1870  1889   un
  3458  1870  1900   un
  3459  1871  3394   un
  3460  1872  1891   un
  3461  1872  3393   un
  3462  1873  1892   un
  3463  1873  1902   un
  3464  1874  3392   un
  3465  1875  1894   un
  3466  1875  3391   un
  3467  1876  1895   un
  3468  1876  1898   un
  3469  1878  3390   un
  3470  1879  1891   un
  3471  1879  3389   un
  3472  1880  3388   un
  3473  1881  1894   un
  3474  1884  1899   un
  3475  1884  1902   un
  3476  1884  3387   un
  3477  1885  1897   un
  3478  1885  1900   un
  3479  1885  3386   un
  3480  1887  1898   un
  3481  1887  1901   un
  3482  1888  1921   un
  3483  1888  1928   un
  3484  1888  1932   un
  3485  1888  2730   un
  3486  1888  2811   un
  3487  1888  2819   un
  3488  1888  2833   un
  3489  1888  2966   un
  3490  1889  1893   un
  3491  1889  1900   un
  3492  1889  1929   un
  3493  1889  1951   un
  3494  1889  2075   un
  3495  1889  2083   un
  3496  1889  2087   un
  3497  1889  2091   un
  3498  1889  2104   un
  3499  1890  1895   un
  3500  1890  1901   un
  3501  1890  1922   un
  3502  1890  1927   un
  3503  1890  2351   un
  3504  1890  2373   un
  3505  1890  2822   un
  3506  1890  2844   un
  3507  1890  2953   un
  3508  1890  2957   un
  3509  1890  2965   un
  3510  1891  1934   un
  3511  1891  2642   un
  3512  1891  2813   un
  3513  1891  2823   un
  3514  1891  2835   un
  3515  1892  1896   un
  3516  1892  1902   un
  3517  1892  1925   un
  3518  1892  2080   un
  3519  1892  2103   un
  3520  1892  2824   un
  3521  1892  2954   un
  3522  1892  2958   un
  3523  1892  3066   un
  3524  1893  1897   un
  3525  1893  1923   un
  3526  1893  1929   un
  3527  1893  2083   un
  3528  1893  2104   un
  3529  1893  2225   un
  3530  1893  2249   un
  3531  1893  2357   un
  3532  1893  2361   un
  3533  1893  2369   un
  3534  1894  1933   un
  3535  1894  2205   un
  3536  1894  2218   un
  3537  1894  2226   un
  3538  1894  2240   un
  3539  1895  1898   un
  3540  1895  1927   un
  3541  1895  2227   un
  3542  1895  2344   un
  3543  1895  2351   un
  3544  1895  2358   un
  3545  1895  2362   un
  3546  1895  2373   un
  3547  1896  1899   un
  3548  1896  1924   un
  3549  1896  1925   un
  3550  1896  1957   un
  3551  1896  1977   un
  3552  1896  2080   un
  3553  1896  2090   un
  3554  1896  2094   un
  3555  1896  2100   un
  3556  1896  2103   un
  3557  1897  1900   un
  3558  1897  1923   un
  3559  1897  2069   un
  3560  1897  2083   un
  3561  1897  2231   un
  3562  1897  2365   un
  3563  1897  2369   un
  3564  1898  1901   un
  3565  1898  2233   un
  3566  1898  2251   un
  3567  1898  2339   un
  3568  1898  2344   un
  3569  1898  2351   un
  3570  1899  1902   un
  3571  1899  1924   un
  3572  1899  1961   un
  3573  1899  2080   un
  3574  1899  2096   un
  3575  1899  2097   un
  3576  1899  2100   un
  3577  1900  1963   un
  3578  1900  1981   un
  3579  1900  2069   un
  3580  1900  2075   un
  3581  1900  2083   un
  3582  1901  1922   un
  3583  1901  2339   un
  3584  1901  2351   un
  3585  1901  2830   un
  3586  1901  2961   un
  3587  1901  2965   un
  3588  1902  2080   un
  3589  1902  2097   un
  3590  1902  2832   un
  3591  1902  2850   un
  3592  1902  3066   un
  3593  1903  2297   un
  3594  1904  2299   un
  3595  1905  2029   un
  3596  1906  2031   un
  3597  1907  2902   un
  3598  1908  2904   un
  3599  1909  2304   un
  3600  1910  2305   un
  3601  1911  2024   un
  3602  1912  2025   un
  3603  1913  2897   un
  3604  1914  2898   un
  3605  1915  1989   un
  3606  1916  1986   un
  3607  1917  2854   un
  3608  1918  2851   un
  3609  1919  2257   un
  3610  1920  2254   un
  3611  1922  3385   un
  3612  1924  3384   un
  3613  1927  3383   un
  3614  1929  3382   un
  3615  1931  3381   un
  3616  1932  3380   un
  3617  1933  3379   un
  3618  1935  1936   un
  3619  1935  1937   un
  3620  1935  1940   un
  3621  1935  1941   un
  3622  1935  1943   un
  3623  1935  1952   un
  3624  1935  1965   un
  3625  1935  2066   un
  3626  1935  2074   un
  3627  1935  2076   un
  3628  1935  2077   un
  3629  1936  1937   un
  3630  1936  1938   un
  3631  1936  1941   un
  3632  1936  1945   un
  3633  1936  1967   un
  3634  1936  1973   un
  3635  1936  2068   un
  3636  1936  2072   un
  3637  1936  2076   un
  3638  1936  2077   un
  3639  1937  1938   un
  3640  1937  1940   un
  3641  1937  1947   un
  3642  1937  1956   un
  3643  1937  1969   un
  3644  1937  1976   un
  3645  1937  2071   un
  3646  1937  2072   un
  3647  1937  2074   un
  3648  1937  2077   un
  3649  1938  1940   un
  3650  1938  1941   un
  3651  1938  1948   un
  3652  1938  1958   un
  3653  1938  1978   un
  3654  1938  2068   un
  3655  1938  2071   un
  3656  1938  2072   un
  3657  1938  2078   un
  3658  1939  1960   un
  3659  1939  1970   un
  3660  1939  2070   un
  3661  1939  2079   un
  3662  1939  2081   un
  3663  1939  2084   un
  3664  1939  2085   un
  3665  1939  2086   un
  3666  1939  2095   un
  3667  1939  2098   un
  3668  1939  2099   un
  3669  1940  1941   un
  3670  1940  1962   un
  3671  1940  1971   un
  3672  1940  1980   un
  3673  1940  2066   un
  3674  1940  2071   un
  3675  1940  2074   un
  3676  1940  2078   un
  3677  1941  2066   un
  3678  1941  2068   un
  3679  1941  2076   un
  3680  1941  2078   un
  3681  1942  2024   un
  3682  1943  2026   un
  3683  1944  2028   un
  3684  1945  2030   un
  3685  1946  2032   un
  3686  1947  2034   un
  3687  1948  2036   un
  3688  1949  2037   un
  3689  1949  2085   un
  3690  1950  1982   un
  3691  1951  1983   un
  3692  1952  1984   un
  3693  1953  1985   un
  3694  1954  1986   un
  3695  1955  1987   un
  3696  1956  1988   un
  3697  1957  1989   un
  3698  1958  1990   un
  3699  1959  1991   un
  3700  1960  1992   un
  3701  1961  1993   un
  3702  1962  1994   un
  3703  1963  1995   un
  3704  1964  2035   un
  3705  1965  2034   un
  3706  1966  2027   un
  3707  1967  2026   un
  3708  1968  2031   un
  3709  1969  2030   un
  3710  1970  2037   un
  3711  1971  2036   un
  3712  1972  1991   un
  3713  1972  2082   un
  3714  1973  1990   un
  3715  1974  1995   un
  3716  1974  2083   un
  3717  1975  1992   un
  3718  1975  2084   un
  3719  1976  1994   un
  3720  1977  1993   un
  3721  1978  1988   un
  3722  1979  1987   un
  3723  1980  1984   un
  3724  1981  1983   un
  3725  1982  1996   un
  3726  1983  1997   un
  3727  1984  1998   un
  3728  1985  1999   un
  3729  1986  2000   un
  3730  1987  2001   un
  3731  1988  2002   un
  3732  1989  2003   un
  3733  1990  2004   un
  3734  1991  2005   un
  3735  1992  2006   un
  3736  1993  2007   un
  3737  1994  2008   un
  3738  1995  2009   un
  3739  1996  1997   un
  3740  1996  2010   un
  3741  1997  2011   un
  3742  1998  1999   un
  3743  1998  2012   un
  3744  1999  2013   un
  3745  2000  2001   un
  3746  2000  2014   un
  3747  2001  2015   un
  3748  2002  2003   un
  3749  2002  2016   un
  3750  2003  2017   un
  3751  2004  2005   un
  3752  2004  2018   un
  3753  2005  2019   un
  3754  2006  2007   un
  3755  2006  2020   un
  3756  2007  2021   un
  3757  2008  2009   un
  3758  2008  2022   un
  3759  2009  2023   un
  3760  2024  2038   un
  3761  2025  2039   un
  3762  2026  2040   un
  3763  2027  2041   un
  3764  2028  2042   un
  3765  2029  2043   un
  3766  2030  2044   un
  3767  2031  2045   un
  3768  2032  2046   un
  3769  2033  2047   un
  3770  2034  2048   un
  3771  2035  2049   un
  3772  2036  2050   un
  3773  2037  2051   un
  3774  2038  2039   un
  3775  2038  2052   un
  3776  2039  2053   un
  3777  2040  2041   un
  3778  2040  2054   un
  3779  2041  2055   un
  3780  2042  2043   un
  3781  2042  2056   un
  3782  2043  2057   un
  3783  2044  2045   un
  3784  2044  2058   un
  3785  2045  2059   un
  3786  2046  2047   un
  3787  2046  2060   un
  3788  2047  2061   un
  3789  2048  2049   un
  3790  2048  2062   un
  3791  2049  2063   un
  3792  2050  2051   un
  3793  2050  2064   un
  3794  2051  2065   un
  3795  2066  3378   un
  3796  2067  2082   un
  3797  2067  3377   un
  3798  2068  3376   un
  3799  2069  2083   un
  3800  2069  3375   un
  3801  2070  2084   un
  3802  2070  2085   un
  3803  2072  3374   un
  3804  2073  2082   un
  3805  2073  3373   un
  3806  2074  3372   un
  3807  2075  2083   un
  3808  2079  2085   un
  3809  2079  2086   un
  3810  2080  2097   un
  3811  2080  2100   un
  3812  2080  2103   un
  3813  2080  2841   un
  3814  2080  2974   un
  3815  2080  2980   un
  3816  2080  2986   un
  3817  2080  3066   un
  3818  2081  2084   un
  3819  2081  2086   un
  3820  2081  2098   un
  3821  2081  2099   un
  3822  2081  2467   un
  3823  2081  2476   un
  3824  2081  2983   un
  3825  2081  3062   un
  3826  2081  3064   un
  3827  2081  3065   un
  3828  2082  2105   un
  3829  2082  2703   un
  3830  2082  2976   un
  3831  2082  2988   un
  3832  2083  2104   un
  3833  2083  2369   un
  3834  2083  2384   un
  3835  2083  2386   un
  3836  2083  2396   un
  3837  2084  2085   un
  3838  2084  2099   un
  3839  2084  2387   un
  3840  2084  2461   un
  3841  2084  2467   un
  3842  2084  2468   un
  3843  2084  2470   un
  3844  2084  2476   un
  3845  2085  2086   un
  3846  2085  2391   un
  3847  2085  2401   un
  3848  2085  2457   un
  3849  2085  2461   un
  3850  2085  2467   un
  3851  2086  2098   un
  3852  2086  2457   un
  3853  2086  2467   un
  3854  2086  3065   un
  3855  2087  2421   un
  3856  2088  2423   un
  3857  2089  3023   un
  3858  2090  3025   un
  3859  2091  2428   un
  3860  2092  2429   un
  3861  2093  3018   un
  3862  2094  3019   un
  3863  2095  2999   un
  3864  2096  2996   un
  3865  2098  3371   un
  3866  2099  3370   un
  3867  2102  3369   un
  3868  2103  3368   un
  3869  2104  3367   un
  3870  2106  2107   un
  3871  2106  2108   un
  3872  2106  2111   un
  3873  2106  2112   un
  3874  2106  2113   un
  3875  2106  2131   un
  3876  2106  2180   un
  3877  2106  2187   un
  3878  2106  2188   un
  3879  2106  2189   un
  3880  2107  2108   un
  3881  2107  2110   un
  3882  2107  2112   un
  3883  2107  2118   un
  3884  2107  2127   un
  3885  2107  2134   un
  3886  2107  2183   un
  3887  2107  2185   un
  3888  2107  2188   un
  3889  2107  2189   un
  3890  2108  2110   un
  3891  2108  2111   un
  3892  2108  2184   un
  3893  2108  2185   un
  3894  2108  2187   un
  3895  2108  2189   un
  3896  2109  2120   un
  3897  2109  2128   un
  3898  2109  2182   un
  3899  2109  2190   un
  3900  2109  2193   un
  3901  2109  2194   un
  3902  2109  2195   un
  3903  2109  2196   un
  3904  2109  2201   un
  3905  2109  2203   un
  3906  2109  2204   un
  3907  2110  2111   un
  3908  2110  2112   un
  3909  2110  2122   un
  3910  2110  2129   un
  3911  2110  2183   un
  3912  2110  2184   un
  3913  2110  2185   un
  3914  2110  2191   un
  3915  2111  2112   un
  3916  2111  2180   un
  3917  2111  2184   un
  3918  2111  2187   un
  3919  2111  2191   un
  3920  2112  2114   un
  3921  2112  2124   un
  3922  2112  2136   un
  3923  2112  2180   un
  3924  2112  2183   un
  3925  2112  2188   un
  3926  2112  2191   un
  3927  2113  2168   un
  3928  2114  2170   un
  3929  2115  2171   un
  3930  2115  2196   un
  3931  2116  2138   un
  3932  2117  2139   un
  3933  2118  2140   un
  3934  2119  2141   un
  3935  2120  2142   un
  3936  2121  2143   un
  3937  2122  2144   un
  3938  2123  2145   un
  3939  2124  2146   un
  3940  2125  2147   un
  3941  2126  2169   un
  3942  2127  2168   un
  3943  2128  2171   un
  3944  2129  2170   un
  3945  2130  2147   un
  3946  2131  2146   un
  3947  2132  2145   un
  3948  2132  2192   un
  3949  2133  2142   un
  3950  2133  2193   un
  3951  2134  2144   un
  3952  2135  2143   un
  3953  2136  2140   un
  3954  2137  2139   un
  3955  2138  2148   un
  3956  2139  2149   un
  3957  2140  2150   un
  3958  2141  2151   un
  3959  2142  2152   un
  3960  2143  2153   un
  3961  2144  2154   un
  3962  2145  2155   un
  3963  2146  2156   un
  3964  2147  2157   un
  3965  2148  2149   un
  3966  2148  2158   un
  3967  2149  2159   un
  3968  2150  2151   un
  3969  2150  2160   un
  3970  2151  2161   un
  3971  2152  2153   un
  3972  2152  2162   un
  3973  2153  2163   un
  3974  2154  2155   un
  3975  2154  2164   un
  3976  2155  2165   un
  3977  2156  2157   un
  3978  2156  2166   un
  3979  2157  2167   un
  3980  2168  2172   un
  3981  2169  2173   un
  3982  2170  2174   un
  3983  2171  2175   un
  3984  2172  2173   un
  3985  2172  2176   un
  3986  2173  2177   un
  3987  2174  2175   un
  3988  2174  2178   un
  3989  2175  2179   un
  3990  2180  3366   un
  3991  2181  2192   un
  3992  2181  3365   un
  3993  2182  2193   un
  3994  2182  2196   un
  3995  2183  3364   un
  3996  2185  3363   un
  3997  2186  2192   un
  3998  2186  3362   un
  3999  2187  3361   un
  4000  2190  2195   un
  4001  2190  2196   un
  4002  2190  3360   un
  4003  2192  2206   un
  4004  2192  2803   un
  4005  2192  3075   un
  4006  2192  3081   un
  4007  2193  2194   un
  4008  2193  2196   un
  4009  2193  2204   un
  4010  2193  2350   un
  4011  2193  2372   un
  4012  2193  3076   un
  4013  2193  3119   un
  4014  2193  3121   un
  4015  2193  3219   un
  4016  2194  2195   un
  4017  2194  2203   un
  4018  2194  2204   un
  4019  2194  2229   un
  4020  2194  2350   un
  4021  2194  2359   un
  4022  2194  2363   un
  4023  2194  2370   un
  4024  2194  2372   un
  4025  2195  2196   un
  4026  2195  2203   un
  4027  2195  2350   un
  4028  2195  2366   un
  4029  2195  2370   un
  4030  2196  2350   un
  4031  2196  2366   un
  4032  2196  3080   un
  4033  2196  3086   un
  4034  2196  3219   un
  4035  2197  2301   un
  4036  2198  2303   un
  4037  2199  2296   un
  4038  2200  2297   un
  4039  2201  2261   un
  4040  2202  2258   un
  4041  2203  3359   un
  4042  2207  2208   un
  4043  2207  2209   un
  4044  2207  2212   un
  4045  2207  2213   un
  4046  2207  2215   un
  4047  2207  2237   un
  4048  2207  2245   un
  4049  2207  2338   un
  4050  2207  2345   un
  4051  2207  2346   un
  4052  2207  2347   un
  4053  2208  2209   un
  4054  2208  2211   un
  4055  2208  2213   un
  4056  2208  2217   un
  4057  2208  2224   un
  4058  2208  2239   un
  4059  2208  2248   un
  4060  2208  2341   un
  4061  2208  2343   un
  4062  2208  2346   un
  4063  2208  2347   un
  4064  2209  2211   un
  4065  2209  2212   un
  4066  2209  2219   un
  4067  2209  2228   un
  4068  2209  2241   un
  4069  2209  2342   un
  4070  2209  2343   un
  4071  2209  2345   un
  4072  2209  2347   un
  4073  2210  2230   un
  4074  2210  2242   un
  4075  2210  2340   un
  4076  2210  2348   un
  4077  2210  2352   un
  4078  2210  2353   un
  4079  2210  2354   un
  4080  2210  2355   un
  4081  2210  2364   un
  4082  2210  2367   un
  4083  2210  2368   un
  4084  2211  2212   un
  4085  2211  2213   un
  4086  2211  2232   un
  4087  2211  2243   un
  4088  2211  2250   un
  4089  2211  2341   un
  4090  2211  2342   un
  4091  2211  2343   un
  4092  2211  2349   un
  4093  2212  2213   un
  4094  2212  2338   un
  4095  2212  2342   un
  4096  2212  2345   un
  4097  2212  2349   un
  4098  2213  2220   un
  4099  2213  2234   un
  4100  2213  2252   un
  4101  2213  2338   un
  4102  2213  2341   un
  4103  2213  2346   un
  4104  2213  2349   un
  4105  2214  2296   un
  4106  2215  2298   un
  4107  2216  2300   un
  4108  2217  2302   un
  4109  2218  2304   un
  4110  2219  2306   un
  4111  2220  2308   un
  4112  2221  2309   un
  4113  2221  2355   un
  4114  2222  2254   un
  4115  2223  2255   un
  4116  2224  2256   un
  4117  2225  2257   un
  4118  2226  2258   un
  4119  2227  2259   un
  4120  2228  2260   un
  4121  2229  2261   un
  4122  2230  2262   un
  4123  2231  2263   un
  4124  2232  2264   un
  4125  2233  2265   un
  4126  2234  2266   un
  4127  2235  2267   un
  4128  2236  2307   un
  4129  2237  2306   un
  4130  2238  2299   un
  4131  2239  2298   un
  4132  2240  2303   un
  4133  2241  2302   un
  4134  2242  2309   un
  4135  2243  2308   un
  4136  2244  2267   un
  4137  2245  2266   un
  4138  2246  2265   un
  4139  2246  2351   un
  4140  2247  2262   un
  4141  2247  2352   un
  4142  2248  2264   un
  4143  2249  2263   un
  4144  2250  2260   un
  4145  2251  2259   un
  4146  2252  2256   un
  4147  2253  2255   un
  4148  2254  2268   un
  4149  2255  2269   un
  4150  2256  2270   un
  4151  2257  2271   un
  4152  2258  2272   un
  4153  2259  2273   un
  4154  2260  2274   un
  4155  2261  2275   un
  4156  2262  2276   un
  4157  2263  2277   un
  4158  2264  2278   un
  4159  2265  2279   un
  4160  2266  2280   un
  4161  2267  2281   un
  4162  2268  2269   un
  4163  2268  2282   un
  4164  2269  2283   un
  4165  2270  2271   un
  4166  2270  2284   un
  4167  2271  2285   un
  4168  2272  2273   un
  4169  2272  2286   un
  4170  2273  2287   un
  4171  2274  2275   un
  4172  2274  2288   un
  4173  2275  2289   un
  4174  2276  2277   un
  4175  2276  2290   un
  4176  2277  2291   un
  4177  2278  2279   un
  4178  2278  2292   un
  4179  2279  2293   un
  4180  2280  2281   un
  4181  2280  2294   un
  4182  2281  2295   un
  4183  2296  2310   un
  4184  2297  2311   un
  4185  2298  2312   un
  4186  2299  2313   un
  4187  2300  2314   un
  4188  2301  2315   un
  4189  2302  2316   un
  4190  2303  2317   un
  4191  2304  2318   un
  4192  2305  2319   un
  4193  2306  2320   un
  4194  2307  2321   un
  4195  2308  2322   un
  4196  2309  2323   un
  4197  2310  2311   un
  4198  2310  2324   un
  4199  2311  2325   un
  4200  2312  2313   un
  4201  2312  2326   un
  4202  2313  2327   un
  4203  2314  2315   un
  4204  2314  2328   un
  4205  2315  2329   un
  4206  2316  2317   un
  4207  2316  2330   un
  4208  2317  2331   un
  4209  2318  2319   un
  4210  2318  2332   un
  4211  2319  2333   un
  4212  2320  2321   un
  4213  2320  2334   un
  4214  2321  2335   un
  4215  2322  2323   un
  4216  2322  2336   un
  4217  2323  2337   un
  4218  2338  3358   un
  4219  2339  2351   un
  4220  2339  3357   un
  4221  2340  2352   un
  4222  2340  2355   un
  4223  2341  3356   un
  4224  2343  3355   un
  4225  2344  2351   un
  4226  2344  3354   un
  4227  2345  3353   un
  4228  2348  2354   un
  4229  2348  2355   un
  4230  2348  3352   un
  4231  2350  2366   un
  4232  2350  2370   un
  4233  2350  2372   un
  4234  2350  3083   un
  4235  2350  3130   un
  4236  2350  3142   un
  4237  2350  3219   un
  4238  2351  2373   un
  4239  2351  2965   un
  4240  2351  3132   un
  4241  2351  3136   un
  4242  2351  3144   un
  4243  2352  2353   un
  4244  2352  2355   un
  4245  2352  2368   un
  4246  2352  2466   un
  4247  2352  2475   un
  4248  2352  3137   un
  4249  2352  3214   un
  4250  2352  3216   un
  4251  2352  3282   un
  4252  2353  2354   un
  4253  2353  2367   un
  4254  2353  2368   un
  4255  2353  2389   un
  4256  2353  2466   un
  4257  2353  2469   un
  4258  2353  2471   un
  4259  2353  2473   un
  4260  2353  2475   un
  4261  2354  2355   un
  4262  2354  2367   un
  4263  2354  2466   un
  4264  2354  2472   un
  4265  2354  2473   un
  4266  2355  2466   un
  4267  2355  2472   un
  4268  2355  3141   un
  4269  2355  3151   un
  4270  2355  3282   un
  4271  2356  2425   un
  4272  2357  2427   un
  4273  2358  3179   un
  4274  2359  3181   un
  4275  2360  2420   un
  4276  2361  2421   un
  4277  2362  3174   un
  4278  2363  3175   un
  4279  2364  2405   un
  4280  2365  2402   un
  4281  2367  3351   un
  4282  2371  3350   un
  4283  2372  3349   un
  4284  2374  2375   un
  4285  2374  2376   un
  4286  2374  2378   un
  4287  2374  2379   un
  4288  2374  2381   un
  4289  2374  2393   un
  4290  2374  2456   un
  4291  2374  2462   un
  4292  2374  2463   un
  4293  2374  2464   un
  4294  2375  2376   un
  4295  2375  2377   un
  4296  2375  2379   un
  4297  2375  2383   un
  4298  2375  2395   un
  4299  2375  2399   un
  4300  2375  2458   un
  4301  2375  2460   un
  4302  2375  2463   un
  4303  2375  2464   un
  4304  2376  2377   un
  4305  2376  2378   un
  4306  2376  2385   un
  4307  2376  2388   un
  4308  2376  2397   un
  4309  2376  2459   un
  4310  2376  2460   un
  4311  2376  2462   un
  4312  2376  2464   un
  4313  2377  2378   un
  4314  2377  2379   un
  4315  2377  2390   un
  4316  2377  2400   un
  4317  2377  2458   un
  4318  2377  2459   un
  4319  2377  2460   un
  4320  2377  2465   un
  4321  2378  2379   un
  4322  2378  2456   un
  4323  2378  2459   un
  4324  2378  2462   un
  4325  2378  2465   un
  4326  2379  2456   un
  4327  2379  2458   un
  4328  2379  2463   un
  4329  2379  2465   un
  4330  2380  2420   un
  4331  2381  2422   un
  4332  2382  2424   un
  4333  2383  2426   un
  4334  2384  2428   un
  4335  2385  2430   un
  4336  2386  2402   un
  4337  2387  2403   un
  4338  2388  2404   un
  4339  2389  2405   un
  4340  2390  2406   un
  4341  2391  2407   un
  4342  2392  2431   un
  4343  2393  2430   un
  4344  2394  2423   un
  4345  2395  2422   un
  4346  2396  2427   un
  4347  2397  2426   un
  4348  2398  2407   un
  4349  2398  2467   un
  4350  2399  2406   un
  4351  2400  2404   un
  4352  2401  2403   un
  4353  2402  2408   un
  4354  2403  2409   un
  4355  2404  2410   un
  4356  2405  2411   un
  4357  2406  2412   un
  4358  2407  2413   un
  4359  2408  2409   un
  4360  2408  2414   un
  4361  2409  2415   un
  4362  2410  2411   un
  4363  2410  2416   un
  4364  2411  2417   un
  4365  2412  2413   un
  4366  2412  2418   un
  4367  2413  2419   un
  4368  2420  2432   un
  4369  2421  2433   un
  4370  2422  2434   un
  4371  2423  2435   un
  4372  2424  2436   un
  4373  2425  2437   un
  4374  2426  2438   un
  4375  2427  2439   un
  4376  2428  2440   un
  4377  2429  2441   un
  4378  2430  2442   un
  4379  2431  2443   un
  4380  2432  2433   un
  4381  2432  2444   un
  4382  2433  2445   un
  4383  2434  2435   un
  4384  2434  2446   un
  4385  2435  2447   un
  4386  2436  2437   un
  4387  2436  2448   un
  4388  2437  2449   un
  4389  2438  2439   un
  4390  2438  2450   un
  4391  2439  2451   un
  4392  2440  2441   un
  4393  2440  2452   un
  4394  2441  2453   un
  4395  2442  2443   un
  4396  2442  2454   un
  4397  2443  2455   un
  4398  2456  3348   un
  4399  2457  2467   un
  4400  2457  3347   un
  4401  2458  3346   un
  4402  2460  3345   un
  4403  2461  2467   un
  4404  2461  3344   un
  4405  2462  3343   un
  4406  2466  2472   un
  4407  2466  2473   un
  4408  2466  2475   un
  4409  2466  3148   un
  4410  2466  3226   un
  4411  2466  3232   un
  4412  2466  3282   un
  4413  2467  2476   un
  4414  2467  3065   un
  4415  2467  3228   un
  4416  2467  3234   un
  4417  2468  3247   un
  4418  2469  3249   un
  4419  2470  3242   un
  4420  2471  3243   un
  4421  2474  3342   un
  4422  2475  3341   un
  4423  2477  2478   un
  4424  2477  2479   un
  4425  2477  2481   un
  4426  2477  2483   un
  4427  2477  2486   un
  4428  2477  2496   un
  4429  2477  2524   un
  4430  2477  2528   un
  4431  2477  2529   un
  4432  2477  2530   un
  4433  2478  2479   un
  4434  2478  2480   un
  4435  2478  2483   un
  4436  2478  2525   un
  4437  2478  2527   un
  4438  2478  2529   un
  4439  2478  2530   un
  4440  2479  2480   un
  4441  2479  2481   un
  4442  2479  2526   un
  4443  2479  2527   un
  4444  2479  2528   un
  4445  2479  2530   un
  4446  2480  2481   un
  4447  2480  2483   un
  4448  2480  2525   un
  4449  2480  2526   un
  4450  2480  2527   un
  4451  2480  2532   un
  4452  2481  2483   un
  4453  2481  2484   un
  4454  2481  2498   un
  4455  2481  2524   un
  4456  2481  2526   un
  4457  2481  2528   un
  4458  2481  2532   un
  4459  2482  2488   un
  4460  2482  2492   un
  4461  2482  2523   un
  4462  2482  2531   un
  4463  2482  2533   un
  4464  2482  2534   un
  4465  2482  2535   un
  4466  2482  2536   un
  4467  2482  2538   un
  4468  2482  2540   un
  4469  2482  2541   un
  4470  2483  2490   un
  4471  2483  2493   un
  4472  2483  2524   un
  4473  2483  2525   un
  4474  2483  2529   un
  4475  2483  2532   un
  4476  2484  2517   un
  4477  2485  2518   un
  4478  2485  2536   un
  4479  2486  2499   un
  4480  2487  2500   un
  4481  2488  2501   un
  4482  2489  2502   un
  4483  2490  2503   un
  4484  2491  2504   un
  4485  2492  2518   un
  4486  2493  2517   un
  4487  2494  2504   un
  4488  2495  2501   un
  4489  2495  2533   un
  4490  2496  2503   un
  4491  2497  2502   un
  4492  2498  2499   un
  4493  2499  2505   un
  4494  2500  2506   un
  4495  2501  2507   un
  4496  2502  2508   un
  4497  2503  2509   un
  4498  2504  2510   un
  4499  2505  2506   un
  4500  2505  2511   un
  4501  2506  2512   un
  4502  2507  2508   un
  4503  2507  2513   un
  4504  2508  2514   un
  4505  2509  2510   un
  4506  2509  2515   un
  4507  2510  2516   un
  4508  2517  2519   un
  4509  2518  2520   un
  4510  2519  2520   un
  4511  2519  2521   un
  4512  2520  2522   un
  4513  2523  2533   un
  4514  2523  2536   un
  4515  2524  3340   un
  4516  2525  3339   un
  4517  2527  3338   un
  4518  2528  3337   un
  4519  2531  2535   un
  4520  2531  2536   un
  4521  2531  3336   un
  4522  2533  2534   un
  4523  2533  2536   un
  4524  2533  2541   un
  4525  2533  2554   un
  4526  2533  2624   un
  4527  2533  2631   un
  4528  2533  2634   un
  4529  2533  2636   un
  4530  2533  2644   un
  4531  2534  2535   un
  4532  2534  2540   un
  4533  2534  2541   un
  4534  2534  2631   un
  4535  2534  2644   un
  4536  2534  2721   un
  4537  2534  2795   un
  4538  2534  2797   un
  4539  2534  2801   un
  4540  2535  2536   un
  4541  2535  2540   un
  4542  2535  2620   un
  4543  2535  2631   un
  4544  2535  2801   un
  4545  2536  2558   un
  4546  2536  2574   un
  4547  2536  2620   un
  4548  2536  2624   un
  4549  2536  2631   un
  4550  2537  2768   un
  4551  2538  2742   un
  4552  2539  2739   un
  4553  2541  3335   un
  4554  2543  2544   un
  4555  2543  2545   un
  4556  2543  2547   un
  4557  2543  2549   un
  4558  2543  2555   un
  4559  2543  2564   un
  4560  2543  2569   un
  4561  2543  2618   un
  4562  2543  2623   un
  4563  2543  2625   un
  4564  2543  2626   un
  4565  2544  2545   un
  4566  2544  2546   un
  4567  2544  2549   un
  4568  2544  2619   un
  4569  2544  2622   un
  4570  2544  2625   un
  4571  2544  2626   un
  4572  2545  2546   un
  4573  2545  2547   un
  4574  2545  2550   un
  4575  2545  2572   un
  4576  2545  2621   un
  4577  2545  2622   un
  4578  2545  2623   un
  4579  2545  2626   un
  4580  2546  2547   un
  4581  2546  2549   un
  4582  2546  2619   un
  4583  2546  2621   un
  4584  2546  2622   un
  4585  2546  2628   un
  4586  2547  2549   un
  4587  2547  2551   un
  4588  2547  2557   un
  4589  2547  2573   un
  4590  2547  2618   un
  4591  2547  2621   un
  4592  2547  2623   un
  4593  2547  2628   un
  4594  2548  2559   un
  4595  2548  2565   un
  4596  2548  2617   un
  4597  2548  2627   un
  4598  2548  2629   un
  4599  2548  2630   un
  4600  2548  2632   un
  4601  2548  2633   un
  4602  2548  2638   un
  4603  2548  2640   un
  4604  2548  2641   un
  4605  2549  2561   un
  4606  2549  2566   un
  4607  2549  2618   un
  4608  2549  2619   un
  4609  2549  2625   un
  4610  2549  2628   un
  4611  2550  2605   un
  4612  2551  2607   un
  4613  2552  2608   un
  4614  2552  2633   un
  4615  2553  2575   un
  4616  2554  2576   un
  4617  2555  2577   un
  4618  2556  2578   un
  4619  2557  2579   un
  4620  2558  2580   un
  4621  2559  2581   un
  4622  2560  2582   un
  4623  2561  2583   un
  4624  2562  2584   un
  4625  2563  2606   un
  4626  2564  2605   un
  4627  2565  2608   un
  4628  2566  2607   un
  4629  2567  2584   un
  4630  2568  2581   un
  4631  2568  2629   un
  4632  2569  2583   un
  4633  2570  2582   un
  4634  2571  2580   un
  4635  2571  2631   un
  4636  2572  2579   un
  4637  2573  2577   un
  4638  2574  2576   un
  4639  2575  2585   un
  4640  2576  2586   un
  4641  2577  2587   un
  4642  2578  2588   un
  4643  2579  2589   un
  4644  2580  2590   un
  4645  2581  2591   un
  4646  2582  2592   un
  4647  2583  2593   un
  4648  2584  2594   un
  4649  2585  2586   un
  4650  2585  2595   un
  4651  2586  2596   un
  4652  2587  2588   un
  4653  2587  2597   un
  4654  2588  2598   un
  4655  2589  2590   un
  4656  2589  2599   un
  4657  2590  2600   un
  4658  2591  2592   un
  4659  2591  2601   un
  4660  2592  2602   un
  4661  2593  2594   un
  4662  2593  2603   un
  4663  2594  2604   un
  4664  2605  2609   un
  4665  2606  2610   un
  4666  2607  2611   un
  4667  2608  2612   un
  4668  2609  2610   un
  4669  2609  2613   un
  4670  2610  2614   un
  4671  2611  2612   un
  4672  2611  2615   un
  4673  2612  2616   un
  4674  2617  2629   un
  4675  2617  2633   un
  4676  2618  3334   un
  4677  2619  3333   un
  4678  2620  2631   un
  4679  2620  3332   un
  4680  2622  3331   un
  4681  2623  3330   un
  4682  2624  2631   un
  4683  2627  2632   un
  4684  2627  2633   un
  4685  2627  3329   un
  4686  2629  2630   un
  4687  2629  2633   un
  4688  2629  2641   un
  4689  2629  2653   un
  4690  2629  2694   un
  4691  2629  2698   un
  4692  2629  2699   un
  4693  2629  2701   un
  4694  2629  2705   un
  4695  2630  2632   un
  4696  2630  2640   un
  4697  2630  2641   un
  4698  2630  2698   un
  4699  2630  2705   un
  4700  2630  2826   un
  4701  2630  2955   un
  4702  2630  2959   un
  4703  2630  2963   un
  4704  2631  2644   un
  4705  2631  2801   un
  4706  2631  2815   un
  4707  2631  2837   un
  4708  2632  2633   un
  4709  2632  2640   un
  4710  2632  2690   un
  4711  2632  2698   un
  4712  2632  2963   un
  4713  2633  2657   un
  4714  2633  2663   un
  4715  2633  2690   un
  4716  2633  2694   un
  4717  2633  2698   un
  4718  2634  2894   un
  4719  2635  2896   un
  4720  2636  2901   un
  4721  2637  2902   un
  4722  2638  2858   un
  4723  2639  2855   un
  4724  2641  3328   un
  4725  2643  3327   un
  4726  2644  3326   un
  4727  2645  2646   un
  4728  2645  2647   un
  4729  2645  2649   un
  4730  2645  2650   un
  4731  2645  2654   un
  4732  2645  2659   un
  4733  2645  2688   un
  4734  2645  2693   un
  4735  2645  2695   un
  4736  2645  2696   un
  4737  2646  2647   un
  4738  2646  2648   un
  4739  2646  2650   un
  4740  2646  2689   un
  4741  2646  2692   un
  4742  2646  2695   un
  4743  2646  2696   un
  4744  2647  2648   un
  4745  2647  2649   un
  4746  2647  2651   un
  4747  2647  2661   un
  4748  2647  2691   un
  4749  2647  2692   un
  4750  2647  2693   un
  4751  2647  2696   un
  4752  2648  2649   un
  4753  2648  2650   un
  4754  2648  2689   un
  4755  2648  2691   un
  4756  2648  2692   un
  4757  2648  2697   un
  4758  2649  2650   un
  4759  2649  2656   un
  4760  2649  2662   un
  4761  2649  2688   un
  4762  2649  2691   un
  4763  2649  2693   un
  4764  2649  2697   un
  4765  2650  2688   un
  4766  2650  2689   un
  4767  2650  2695   un
  4768  2650  2697   un
  4769  2651  2682   un
  4770  2652  2664   un
  4771  2653  2665   un
  4772  2654  2666   un
  4773  2655  2667   un
  4774  2656  2668   un
  4775  2657  2669   un
  4776  2658  2683   un
  4777  2659  2682   un
  4778  2660  2669   un
  4779  2660  2698   un
  4780  2661  2668   un
  4781  2662  2666   un
  4782  2663  2665   un
  4783  2664  2670   un
  4784  2665  2671   un
  4785  2666  2672   un
  4786  2667  2673   un
  4787  2668  2674   un
  4788  2669  2675   un
  4789  2670  2671   un
  4790  2670  2676   un
  4791  2671  2677   un
  4792  2672  2673   un
  4793  2672  2678   un
  4794  2673  2679   un
  4795  2674  2675   un
  4796  2674  2680   un
  4797  2675  2681   un
  4798  2682  2684   un
  4799  2683  2685   un
  4800  2684  2685   un
  4801  2684  2686   un
  4802  2685  2687   un
  4803  2688  3325   un
  4804  2689  3324   un
  4805  2690  2698   un
  4806  2690  3323   un
  4807  2692  3322   un
  4808  2693  3321   un
  4809  2694  2698   un
  4810  2698  2705   un
  4811  2698  2963   un
  4812  2698  2978   un
  4813  2698  2990   un
  4814  2699  3015   un
  4815  2700  3017   un
  4816  2701  3022   un
  4817  2702  3023   un
  4818  2704  3320   un
  4819  2705  3319   un
  4820  2706  2707   un
  4821  2706  2708   un
  4822  2706  2710   un
  4823  2706  2712   un
  4824  2706  2713   un
  4825  2706  2716   un
  4826  2706  2732   un
  4827  2706  2780   un
  4828  2706  2784   un
  4829  2706  2785   un
  4830  2706  2786   un
  4831  2707  2708   un
  4832  2707  2709   un
  4833  2707  2712   un
  4834  2707  2720   un
  4835  2707  2727   un
  4836  2707  2781   un
  4837  2707  2783   un
  4838  2707  2785   un
  4839  2707  2786   un
  4840  2708  2709   un
  4841  2708  2710   un
  4842  2708  2782   un
  4843  2708  2783   un
  4844  2708  2784   un
  4845  2708  2786   un
  4846  2709  2710   un
  4847  2709  2712   un
  4848  2709  2781   un
  4849  2709  2782   un
  4850  2709  2783   un
  4851  2709  2788   un
  4852  2710  2712   un
  4853  2710  2714   un
  4854  2710  2734   un
  4855  2710  2780   un
  4856  2710  2782   un
  4857  2710  2784   un
  4858  2710  2788   un
  4859  2711  2722   un
  4860  2711  2728   un
  4861  2711  2779   un
  4862  2711  2787   un
  4863  2711  2789   un
  4864  2711  2790   un
  4865  2711  2791   un
  4866  2711  2792   un
  4867  2711  2798   un
  4868  2711  2800   un
  4869  2711  2802   un
  4870  2712  2724   un
  4871  2712  2729   un
  4872  2712  2735   un
  4873  2712  2780   un
  4874  2712  2781   un
  4875  2712  2785   un
  4876  2712  2788   un
  4877  2713  2767   un
  4878  2714  2769   un
  4879  2715  2770   un
  4880  2715  2792   un
  4881  2716  2737   un
  4882  2717  2738   un
  4883  2718  2739   un
  4884  2719  2740   un
  4885  2720  2741   un
  4886  2721  2742   un
  4887  2722  2743   un
  4888  2723  2744   un
  4889  2724  2745   un
  4890  2725  2746   un
  4891  2726  2768   un
  4892  2727  2767   un
  4893  2728  2770   un
  4894  2729  2769   un
  4895  2730  2746   un
  4896  2731  2743   un
  4897  2731  2789   un
  4898  2732  2745   un
  4899  2733  2744   un
  4900  2734  2737   un
  4901  2735  2741   un
  4902  2736  2740   un
  4903  2737  2747   un
  4904  2738  2748   un
  4905  2739  2749   un
  4906  2740  2750   un
  4907  2741  2751   un
  4908  2742  2752   un
  4909  2743  2753   un
  4910  2744  2754   un
  4911  2745  2755   un
  4912  2746  2756   un
  4913  2747  2748   un
  4914  2747  2757   un
  4915  2748  2758   un
  4916  2749  2750   un
  4917  2749  2759   un
  4918  2750  2760   un
  4919  2751  2752   un
  4920  2751  2761   un
  4921  2752  2762   un
  4922  2753  2754   un
  4923  2753  2763   un
  4924  2754  2764   un
  4925  2755  2756   un
  4926  2755  2765   un
  4927  2756  2766   un
  4928  2767  2771   un
  4929  2768  2772   un
  4930  2769  2773   un
  4931  2770  2774   un
  4932  2771  2772   un
  4933  2771  2775   un
  4934  2772  2776   un
  4935  2773  2774   un
  4936  2773  2777   un
  4937  2774  2778   un
  4938  2779  2789   un
  4939  2779  2792   un
  4940  2780  3318   un
  4941  2781  3317   un
  4942  2783  3316   un
  4943  2784  3315   un
  4944  2787  2791   un
  4945  2787  2792   un
  4946  2787  3314   un
  4947  2789  2790   un
  4948  2789  2792   un
  4949  2789  2802   un
  4950  2789  2820   un
  4951  2789  2942   un
  4952  2789  2949   un
  4953  2789  2952   un
  4954  2789  2956   un
  4955  2789  2967   un
  4956  2790  2791   un
  4957  2790  2800   un
  4958  2790  2802   un
  4959  2790  2949   un
  4960  2790  2967   un
  4961  2790  3078   un
  4962  2790  3120   un
  4963  2790  3122   un
  4964  2790  3123   un
  4965  2791  2792   un
  4966  2791  2800   un
  4967  2791  2938   un
  4968  2791  2949   un
  4969  2791  3123   un
  4970  2792  2828   un
  4971  2792  2848   un
  4972  2792  2938   un
  4973  2792  2942   un
  4974  2792  2949   un
  4975  2793  3106   un
  4976  2794  2898   un
  4977  2795  2900   un
  4978  2796  2893   un
  4979  2797  2894   un
  4980  2798  3090   un
  4981  2799  3087   un
  4982  2802  3313   un
  4983  2804  2805   un
  4984  2804  2806   un
  4985  2804  2808   un
  4986  2804  2810   un
  4987  2804  2812   un
  4988  2804  2821   un
  4989  2804  2834   un
  4990  2804  2843   un
  4991  2804  2936   un
  4992  2804  2941   un
  4993  2804  2943   un
  4994  2804  2944   un
  4995  2805  2806   un
  4996  2805  2807   un
  4997  2805  2810   un
  4998  2805  2814   un
  4999  2805  2825   un
  5000  2805  2836   un
  5001  2805  2937   un
  5002  2805  2940   un
  5003  2805  2943   un
  5004  2805  2944   un
  5005  2806  2807   un
  5006  2806  2808   un
  5007  2806  2816   un
  5008  2806  2838   un
  5009  2806  2846   un
  5010  2806  2939   un
  5011  2806  2940   un
  5012  2806  2941   un
  5013  2806  2944   un
  5014  2807  2808   un
  5015  2807  2810   un
  5016  2807  2937   un
  5017  2807  2939   un
  5018  2807  2940   un
  5019  2807  2946   un
  5020  2808  2810   un
  5021  2808  2817   un
  5022  2808  2827   un
  5023  2808  2847   un
  5024  2808  2936   un
  5025  2808  2939   un
  5026  2808  2941   un
  5027  2808  2946   un
  5028  2809  2829   un
  5029  2809  2839   un
  5030  2809  2935   un
  5031  2809  2945   un
  5032  2809  2947   un
  5033  2809  2948   un
  5034  2809  2950   un
  5035  2809  2951   un
  5036  2809  2960   un
  5037  2809  2962   un
  5038  2809  2964   un
  5039  2810  2831   un
  5040  2810  2840   un
  5041  2810  2849   un
  5042  2810  2936   un
  5043  2810  2937   un
  5044  2810  2943   un
  5045  2810  2946   un
  5046  2811  2893   un
  5047  2812  2895   un
  5048  2813  2897   un
  5049  2814  2899   un
  5050  2815  2901   un
  5051  2816  2903   un
  5052  2817  2905   un
  5053  2818  2906   un
  5054  2818  2951   un
  5055  2819  2851   un
  5056  2820  2852   un
  5057  2821  2853   un
  5058  2822  2854   un
  5059  2823  2855   un
  5060  2824  2856   un
  5061  2825  2857   un
  5062  2826  2858   un
  5063  2827  2859   un
  5064  2828  2860   un
  5065  2829  2861   un
  5066  2830  2862   un
  5067  2831  2863   un
  5068  2832  2864   un
  5069  2833  2904   un
  5070  2834  2903   un
  5071  2835  2896   un
  5072  2836  2895   un
  5073  2837  2900   un
  5074  2838  2899   un
  5075  2839  2906   un
  5076  2840  2905   un
  5077  2841  2864   un
  5078  2842  2861   un
  5079  2842  2947   un
  5080  2843  2863   un
  5081  2844  2862   un
  5082  2845  2860   un
  5083  2845  2949   un
  5084  2846  2859   un
  5085  2847  2853   un
  5086  2848  2852   un
  5087  2849  2857   un
  5088  2850  2856   un
  5089  2851  2865   un
  5090  2852  2866   un
  5091  2853  2867   un
  5092  2854  2868   un
  5093  2855  2869   un
  5094  2856  2870   un
  5095  2857  2871   un
  5096  2858  2872   un
  5097  2859  2873   un
  5098  2860  2874   un
  5099  2861  2875   un
  5100  2862  2876   un
  5101  2863  2877   un
  5102  2864  2878   un
  5103  2865  2866   un
  5104  2865  2879   un
  5105  2866  2880   un
  5106  2867  2868   un
  5107  2867  2881   un
  5108  2868  2882   un
  5109  2869  2870   un
  5110  2869  2883   un
  5111  2870  2884   un
  5112  2871  2872   un
  5113  2871  2885   un
  5114  2872  2886   un
  5115  2873  2874   un
  5116  2873  2887   un
  5117  2874  2888   un
  5118  2875  2876   un
  5119  2875  2889   un
  5120  2876  2890   un
  5121  2877  2878   un
  5122  2877  2891   un
  5123  2878  2892   un
  5124  2893  2907   un
  5125  2894  2908   un
  5126  2895  2909   un
  5127  2896  2910   un
  5128  2897  2911   un
  5129  2898  2912   un
  5130  2899  2913   un
  5131  2900  2914   un
  5132  2901  2915   un
  5133  2902  2916   un
  5134  2903  2917   un
  5135  2904  2918   un
  5136  2905  2919   un
  5137  2906  2920   un
  5138  2907  2908   un
  5139  2907  2921   un
  5140  2908  2922   un
  5141  2909  2910   un
  5142  2909  2923   un
  5143  2910  2924   un
  5144  2911  2912   un
  5145  2911  2925   un
  5146  2912  2926   un
  5147  2913  2914   un
  5148  2913  2927   un
  5149  2914  2928   un
  5150  2915  2916   un
  5151  2915  2929   un
  5152  2916  2930   un
  5153  2917  2918   un
  5154  2917  2931   un
  5155  2918  2932   un
  5156  2919  2920   un
  5157  2919  2933   un
  5158  2920  2934   un
  5159  2935  2947   un
  5160  2935  2951   un
  5161  2936  3312   un
  5162  2937  3311   un
  5163  2938  2949   un
  5164  2938  3310   un
  5165  2940  3309   un
  5166  2941  3308   un
  5167  2942  2949   un
  5168  2945  2950   un
  5169  2945  2951   un
  5170  2945  3307   un
  5171  2947  2948   un
  5172  2947  2951   un
  5173  2947  2964   un
  5174  2947  2981   un
  5175  2947  3056   un
  5176  2947  3060   un
  5177  2947  3061   un
  5178  2947  3063   un
  5179  2947  3067   un
  5180  2948  2950   un
  5181  2948  2962   un
  5182  2948  2964   un
  5183  2948  3060   un
  5184  2948  3067   un
  5185  2948  3139   un
  5186  2948  3215   un
  5187  2948  3217   un
  5188  2948  3218   un
  5189  2949  2967   un
  5190  2949  3123   un
  5191  2949  3134   un
  5192  2949  3146   un
  5193  2950  2951   un
  5194  2950  2962   un
  5195  2950  3052   un
  5196  2950  3060   un
  5197  2950  3218   un
  5198  2951  2985   un
  5199  2951  2995   un
  5200  2951  3052   un
  5201  2951  3056   un
  5202  2951  3060   un
  5203  2952  3171   un
  5204  2953  3173   un
  5205  2954  3019   un
  5206  2955  3021   un
  5207  2956  3178   un
  5208  2957  3179   un
  5209  2958  3014   un
  5210  2959  3015   un
  5211  2960  3155   un
  5212  2961  3152   un
  5213  2964  3306   un
  5214  2966  3305   un
  5215  2967  3304   un
  5216  2968  2969   un
  5217  2968  2970   un
  5218  2968  2972   un
  5219  2968  2973   un
  5220  2968  2975   un
  5221  2968  2982   un
  5222  2968  2987   un
  5223  2968  3050   un
  5224  2968  3055   un
  5225  2968  3057   un
  5226  2968  3058   un
  5227  2969  2970   un
  5228  2969  2971   un
  5229  2969  2973   un
  5230  2969  2977   un
  5231  2969  2989   un
  5232  2969  3051   un
  5233  2969  3054   un
  5234  2969  3057   un
  5235  2969  3058   un
  5236  2970  2971   un
  5237  2970  2972   un
  5238  2970  2979   un
  5239  2970  2991   un
  5240  2970  2993   un
  5241  2970  3053   un
  5242  2970  3054   un
  5243  2970  3055   un
  5244  2970  3058   un
  5245  2971  2972   un
  5246  2971  2973   un
  5247  2971  3051   un
  5248  2971  3053   un
  5249  2971  3054   un
  5250  2971  3059   un
  5251  2972  2973   un
  5252  2972  2984   un
  5253  2972  2994   un
  5254  2972  3050   un
  5255  2972  3053   un
  5256  2972  3055   un
  5257  2972  3059   un
  5258  2973  3050   un
  5259  2973  3051   un
  5260  2973  3057   un
  5261  2973  3059   un
  5262  2974  3014   un
  5263  2975  3016   un
  5264  2976  3018   un
  5265  2977  3020   un
  5266  2978  3022   un
  5267  2979  3024   un
  5268  2980  2996   un
  5269  2981  2997   un
  5270  2982  2998   un
  5271  2983  2999   un
  5272  2984  3000   un
  5273  2985  3001   un
  5274  2986  3025   un
  5275  2987  3024   un
  5276  2988  3017   un
  5277  2989  3016   un
  5278  2990  3021   un
  5279  2991  3020   un
  5280  2992  3001   un
  5281  2992  3060   un
  5282  2993  3000   un
  5283  2994  2998   un
  5284  2995  2997   un
  5285  2996  3002   un
  5286  2997  3003   un
  5287  2998  3004   un
  5288  2999  3005   un
  5289  3000  3006   un
  5290  3001  3007   un
  5291  3002  3003   un
  5292  3002  3008   un
  5293  3003  3009   un
  5294  3004  3005   un
  5295  3004  3010   un
  5296  3005  3011   un
  5297  3006  3007   un
  5298  3006  3012   un
  5299  3007  3013   un
  5300  3014  3026   un
  5301  3015  3027   un
  5302  3016  3028   un
  5303  3017  3029   un
  5304  3018  3030   un
  5305  3019  3031   un
  5306  3020  3032   un
  5307  3021  3033   un
  5308  3022  3034   un
  5309  3023  3035   un
  5310  3024  3036   un
  5311  3025  3037   un
  5312  3026  3027   un
  5313  3026  3038   un
  5314  3027  3039   un
  5315  3028  3029   un
  5316  3028  3040   un
  5317  3029  3041   un
  5318  3030  3031   un
  5319  3030  3042   un
  5320  3031  3043   un
  5321  3032  3033   un
  5322  3032  3044   un
  5323  3033  3045   un
  5324  3034  3035   un
  5325  3034  3046   un
  5326  3035  3047   un
  5327  3036  3037   un
  5328  3036  3048   un
  5329  3037  3049   un
  5330  3050  3303   un
  5331  3051  3302   un
  5332  3052  3060   un
  5333  3052  3301   un
  5334  3054  3300   un
  5335  3055  3299   un
  5336  3056  3060   un
  5337  3060  3067   un
  5338  3060  3218   un
  5339  3060  3230   un
  5340  3060  3236   un
  5341  3061  3239   un
  5342  3062  3241   un
  5343  3063  3246   un
  5344  3064  3247   un
  5345  3066  3298   un
  5346  3067  3297   un
  5347  3068  3069   un
  5348  3068  3070   un
  5349  3068  3072   un
  5350  3068  3073   un
  5351  3068  3074   un
  5352  3068  3084   un
  5353  3068  3111   un
  5354  3068  3115   un
  5355  3068  3116   un
  5356  3068  3117   un
  5357  3069  3070   un
  5358  3069  3071   un
  5359  3069  3073   un
  5360  3069  3077   un
  5361  3069  3082   un
  5362  3069  3112   un
  5363  3069  3114   un
  5364  3069  3116   un
  5365  3069  3117   un
  5366  3070  3071   un
  5367  3070  3072   un
  5368  3070  3113   un
  5369  3070  3114   un
  5370  3070  3115   un
  5371  3070  3117   un
  5372  3071  3072   un
  5373  3071  3073   un
  5374  3071  3112   un
  5375  3071  3113   un
  5376  3071  3114   un
  5377  3071  3118   un
  5378  3072  3073   un
  5379  3072  3111   un
  5380  3072  3113   un
  5381  3072  3115   un
  5382  3072  3118   un
  5383  3073  3079   un
  5384  3073  3085   un
  5385  3073  3111   un
  5386  3073  3112   un
  5387  3073  3116   un
  5388  3073  3118   un
  5389  3074  3105   un
  5390  3075  3087   un
  5391  3076  3088   un
  5392  3077  3089   un
  5393  3078  3090   un
  5394  3079  3091   un
  5395  3080  3092   un
  5396  3081  3106   un
  5397  3082  3105   un
  5398  3083  3092   un
  5399  3084  3091   un
  5400  3085  3089   un
  5401  3086  3088   un
  5402  3087  3093   un
  5403  3088  3094   un
  5404  3089  3095   un
  5405  3090  3096   un
  5406  3091  3097   un
  5407  3092  3098   un
  5408  3093  3094   un
  5409  3093  3099   un
  5410  3094  3100   un
  5411  3095  3096   un
  5412  3095  3101   un
  5413  3096  3102   un
  5414  3097  3098   un
  5415  3097  3103   un
  5416  3098  3104   un
  5417  3105  3107   un
  5418  3106  3108   un
  5419  3107  3108   un
  5420  3107  3109   un
  5421  3108  3110   un
  5422  3111  3296   un
  5423  3112  3295   un
  5424  3114  3294   un
  5425  3115  3293   un
  5426  3119  3175   un
  5427  3120  3177   un
  5428  3121  3170   un
  5429  3122  3171   un
  5430  3124  3125   un
  5431  3124  3126   un
  5432  3124  3128   un
  5433  3124  3129   un
  5434  3124  3131   un
  5435  3124  3143   un
  5436  3124  3149   un
  5437  3124  3206   un
  5438  3124  3210   un
  5439  3124  3211   un
  5440  3124  3212   un
  5441  3125  3126   un
  5442  3125  3127   un
  5443  3125  3129   un
  5444  3125  3133   un
  5445  3125  3138   un
  5446  3125  3145   un
  5447  3125  3207   un
  5448  3125  3209   un
  5449  3125  3211   un
  5450  3125  3212   un
  5451  3126  3127   un
  5452  3126  3128   un
  5453  3126  3135   un
  5454  3126  3147   un
  5455  3126  3208   un
  5456  3126  3209   un
  5457  3126  3210   un
  5458  3126  3212   un
  5459  3127  3128   un
  5460  3127  3129   un
  5461  3127  3207   un
  5462  3127  3208   un
  5463  3127  3209   un
  5464  3127  3213   un
  5465  3128  3129   un
  5466  3128  3206   un
  5467  3128  3208   un
  5468  3128  3210   un
  5469  3128  3213   un
  5470  3129  3140   un
  5471  3129  3150   un
  5472  3129  3206   un
  5473  3129  3207   un
  5474  3129  3211   un
  5475  3129  3213   un
  5476  3130  3170   un
  5477  3131  3172   un
  5478  3132  3174   un
  5479  3133  3176   un
  5480  3134  3178   un
  5481  3135  3180   un
  5482  3136  3152   un
  5483  3137  3153   un
  5484  3138  3154   un
  5485  3139  3155   un
  5486  3140  3156   un
  5487  3141  3157   un
  5488  3142  3181   un
  5489  3143  3180   un
  5490  3144  3173   un
  5491  3145  3172   un
  5492  3146  3177   un
  5493  3147  3176   un
  5494  3148  3157   un
  5495  3149  3156   un
  5496  3150  3154   un
  5497  3151  3153   un
  5498  3152  3158   un
  5499  3153  3159   un
  5500  3154  3160   un
  5501  3155  3161   un
  5502  3156  3162   un
  5503  3157  3163   un
  5504  3158  3159   un
  5505  3158  3164   un
  5506  3159  3165   un
  5507  3160  3161   un
  5508  3160  3166   un
  5509  3161  3167   un
  5510  3162  3163   un
  5511  3162  3168   un
  5512  3163  3169   un
  5513  3170  3182   un
  5514  3171  3183   un
  5515  3172  3184   un
  5516  3173  3185   un
  5517  3174  3186   un
  5518  3175  3187   un
  5519  3176  3188   un
  5520  3177  3189   un
  5521  3178  3190   un
  5522  3179  3191   un
  5523  3180  3192   un
  5524  3181  3193   un
  5525  3182  3183   un
  5526  3182  3194   un
  5527  3183  3195   un
  5528  3184  3185   un
  5529  3184  3196   un
  5530  3185  3197   un
  5531  3186  3187   un
  5532  3186  3198   un
  5533  3187  3199   un
  5534  3188  3189   un
  5535  3188  3200   un
  5536  3189  3201   un
  5537  3190  3191   un
  5538  3190  3202   un
  5539  3191  3203   un
  5540  3192  3193   un
  5541  3192  3204   un
  5542  3193  3205   un
  5543  3206  3292   un
  5544  3207  3291   un
  5545  3209  3290   un
  5546  3210  3289   un
  5547  3214  3243   un
  5548  3215  3245   un
  5549  3216  3238   un
  5550  3217  3239   un
  5551  3219  3288   un
  5552  3220  3221   un
  5553  3220  3222   un
  5554  3220  3224   un
  5555  3220  3225   un
  5556  3220  3227   un
  5557  3220  3233   un
  5558  3220  3274   un
  5559  3220  3278   un
  5560  3220  3279   un
  5561  3220  3280   un
  5562  3221  3222   un
  5563  3221  3223   un
  5564  3221  3225   un
  5565  3221  3229   un
  5566  3221  3235   un
  5567  3221  3275   un
  5568  3221  3277   un
  5569  3221  3279   un
  5570  3221  3280   un
  5571  3222  3223   un
  5572  3222  3224   un
  5573  3222  3231   un
  5574  3222  3237   un
  5575  3222  3276   un
  5576  3222  3277   un
  5577  3222  3278   un
  5578  3222  3280   un
  5579  3223  3224   un
  5580  3223  3225   un
  5581  3223  3275   un
  5582  3223  3276   un
  5583  3223  3277   un
  5584  3223  3281   un
  5585  3224  3225   un
  5586  3224  3274   un
  5587  3224  3276   un
  5588  3224  3278   un
  5589  3224  3281   un
  5590  3225  3274   un
  5591  3225  3275   un
  5592  3225  3279   un
  5593  3225  3281   un
  5594  3226  3238   un
  5595  3227  3240   un
  5596  3228  3242   un
  5597  3229  3244   un
  5598  3230  3246   un
  5599  3231  3248   un
  5600  3232  3249   un
  5601  3233  3248   un
  5602  3234  3241   un
  5603  3235  3240   un
  5604  3236  3245   un
  5605  3237  3244   un
  5606  3238  3250   un
  5607  3239  3251   un
  5608  3240  3252   un
  5609  3241  3253   un
  5610  3242  3254   un
  5611  3243  3255   un
  5612  3244  3256   un
  5613  3245  3257   un
  5614  3246  3258   un
  5615  3247  3259   un
  5616  3248  3260   un
  5617  3249  3261   un
  5618  3250  3251   un
  5619  3250  3262   un
  5620  3251  3263   un
  5621  3252  3253   un
  5622  3252  3264   un
  5623  3253  3265   un
  5624  3254  3255   un
  5625  3254  3266   un
  5626  3255  3267   un
  5627  3256  3257   un
  5628  3256  3268   un
  5629  3257  3269   un
  5630  3258  3259   un
  5631  3258  3270   un
  5632  3259  3271   un
  5633  3260  3261   un
  5634  3260  3272   un
  5635  3261  3273   un
  5636  3274  3287   un
  5637  3275  3286   un
  5638  3277  3285   un
  5639  3278  3284   un
  5640  3282  3283   un
@<TRIPOS>SUBSTRUCTURE
     1 RES1        1 GROUP             0 ****  ****    0  
@<TRIPOS>CRYSIN
   17.8348   17.8348   17.8348   90.0000   90.0000   90.0000     1     1
