@<TRIPOS>MOLECULE
MOL
   432   613     1     0     0
SMALL
NO_CHARGES
****
ITC 2023. ALL RIGHTS RESERVED.

@<TRIPOS>ATOM
     1 Zr4     38.1281  35.4711  44.3751   Zr        1 RES1   0.0000
     2 Zr10    35.4711  35.8815  42.1285   Zr        1 RES1   0.0000
     3 Zr22    35.8681  35.4577  47.0455   Zr        1 RES1   0.0000
     4 Zr6     35.8815  42.1285  35.4711   Zr        1 RES1   0.0000
     5 Zr12    35.4711  44.3751  38.1281   Zr        1 RES1   0.0000
     6 Zr18    35.4577  47.0455  35.8681   Zr        1 RES1   0.0000
     7 Zr17    35.4577  51.0459  44.3885   Zr        1 RES1   0.0000
     8 O17     35.5269  49.7769  46.2189   Oco2      1 RES1   0.0000
     9 O18     35.5269  48.3145  51.8725   Oco2      1 RES1   0.0000
    10 O41     35.2309  50.1087  42.3648   Oco2      1 RES1   0.0000
    11 O42     35.2309  47.9827  37.8918   Oco2      1 RES1   0.0000
    12 O70     35.7998  51.2519  47.9685   Oco2      1 RES1   0.0000
    13 O72     35.7998  46.8395  50.1229   Oco2      1 RES1   0.0000
    14 O82     35.2433  51.8886  40.8631   Oco2      1 RES1   0.0000
    15 O84     35.2433  46.2028  39.3935   Oco2      1 RES1   0.0000
    16 C17     35.2416  50.6437  41.2144   C.2       1 RES1   0.0000
    17 C18     35.2416  47.4477  39.0422   C.2       1 RES1   0.0000
    18 C41     35.2362  49.6842  40.0302   C.2       1 RES1   0.0000
    19 C42     35.2362  48.4072  40.2264   C.2       1 RES1   0.0000
    20 H17     35.2344  50.0177  39.1617   H         1 RES1   0.0000
    21 H18     35.2344  48.0737  41.0949   H         1 RES1   0.0000
    22 C65     35.6696  50.1051  47.4441   C.2       1 RES1   0.0000
    23 C66     35.6696  47.9863  50.6473   C.2       1 RES1   0.0000
    24 C89     35.6678  48.9262  48.3947   C.2       1 RES1   0.0000
    25 C90     35.6678  49.1652  49.6967   C.2       1 RES1   0.0000
    26 H41     35.6678  48.0541  48.0719   H         1 RES1   0.0000
    27 H42     35.6678  50.0373  50.0195   H         1 RES1   0.0000
    28 Zr1     38.1281  44.7855  35.8815   Zr        1 RES1   0.0000
    29 Zr4     38.1281  53.3059  44.3751   Zr        1 RES1   0.0000
    30 Zr5     35.8815  38.1281  44.7855   Zr        1 RES1   0.0000
    31 Zr6     35.8815  42.1285  53.3059   Zr        1 RES1   0.0000
    32 Zr10    35.4711  53.7163  42.1285   Zr        1 RES1   0.0000
    33 Zr18    35.4577  47.0455  53.7029   Zr        1 RES1   0.0000
    34 Zr22    35.8681  53.2925  47.0455   Zr        1 RES1   0.0000
    35 Zr24    35.8681  44.7989  51.0459   Zr        1 RES1   0.0000
    36 O10     37.3015  35.8123  40.8595   Oco2      1 RES1   0.0000
    37 O12     37.3015  44.4443  39.3971   Oco2      1 RES1   0.0000
    38 O58     35.5394  37.9221  41.2055   Oco2      1 RES1   0.0000
    39 O60     35.5394  42.3345  39.0511   Oco2      1 RES1   0.0000
    40 O89     37.2854  49.7805  44.1607   Oco2      1 RES1   0.0000
    41 O90     37.2854  48.3109  36.0959   Oco2      1 RES1   0.0000
    42 O100    37.0340  51.8689  45.7409   O3        1 RES1   0.0000
    43 O113    36.8235  52.1400  42.9515   O3        1 RES1   0.0000
    44 O114    36.8235  45.9514  37.3051   O3        1 RES1   0.0000
    45 O153    37.0696  43.1870  37.0696   O3        1 RES1   0.0000
    46 O156    37.0696  37.0696  43.1870   O3        1 RES1   0.0000
    47 Zr1     38.1281  44.7855  53.7163   Zr        1 RES1   0.0000
    48 O97     37.0340  46.2225  52.3505   O3        1 RES1   0.0000
    49 O10     37.3015  53.6471  40.8595   Oco2      1 RES1   0.0000
    50 Zr2     42.1285  35.4711  35.8815   Zr        1 RES1   0.0000
    51 Zr8     44.3751  38.1281  35.4711   Zr        1 RES1   0.0000
    52 Zr14    47.0455  35.8681  35.4577   Zr        1 RES1   0.0000
    53 Zr21    44.3885  35.4577  51.0459   Zr        1 RES1   0.0000
    54 O21     46.2189  35.5269  49.7769   Oco2      1 RES1   0.0000
    55 O22     51.8725  35.5269  48.3145   Oco2      1 RES1   0.0000
    56 O45     42.3648  35.2309  50.1087   Oco2      1 RES1   0.0000
    57 O46     37.8918  35.2309  47.9827   Oco2      1 RES1   0.0000
    58 O62     47.9685  35.7998  51.2519   Oco2      1 RES1   0.0000
    59 O64     50.1229  35.7998  46.8395   Oco2      1 RES1   0.0000
    60 O74     40.8631  35.2433  51.8886   Oco2      1 RES1   0.0000
    61 O76     39.3935  35.2433  46.2028   Oco2      1 RES1   0.0000
    62 C21     41.2144  35.2416  50.6437   C.2       1 RES1   0.0000
    63 C22     39.0422  35.2416  47.4477   C.2       1 RES1   0.0000
    64 C45     40.0302  35.2362  49.6842   C.2       1 RES1   0.0000
    65 C46     40.2264  35.2362  48.4072   C.2       1 RES1   0.0000
    66 H21     39.1617  35.2344  50.0177   H         1 RES1   0.0000
    67 H22     41.0949  35.2344  48.0737   H         1 RES1   0.0000
    68 C69     47.4441  35.6696  50.1051   C.2       1 RES1   0.0000
    69 C70     50.6473  35.6696  47.9863   C.2       1 RES1   0.0000
    70 C93     48.3947  35.6678  48.9262   C.2       1 RES1   0.0000
    71 C94     49.6967  35.6678  49.1652   C.2       1 RES1   0.0000
    72 H45     48.0719  35.6678  48.0541   H         1 RES1   0.0000
    73 H46     50.0195  35.6678  50.0373   H         1 RES1   0.0000
    74 Zr2     42.1285  35.4711  53.7163   Zr        1 RES1   0.0000
    75 Zr8     44.3751  38.1281  53.3059   Zr        1 RES1   0.0000
    76 Zr9     44.7855  35.8815  38.1281   Zr        1 RES1   0.0000
    77 Zr10    53.3059  35.8815  42.1285   Zr        1 RES1   0.0000
    78 Zr14    47.0455  35.8681  53.2925   Zr        1 RES1   0.0000
    79 Zr16    51.0459  35.8681  44.7989   Zr        1 RES1   0.0000
    80 Zr22    53.7029  35.4577  47.0455   Zr        1 RES1   0.0000
    81 O2      40.8595  37.3015  35.8123   Oco2      1 RES1   0.0000
    82 O4      39.3971  37.3015  44.4443   Oco2      1 RES1   0.0000
    83 O50     41.2055  35.5394  37.9221   Oco2      1 RES1   0.0000
    84 O52     39.0511  35.5394  42.3345   Oco2      1 RES1   0.0000
    85 O93     44.1607  37.2854  49.7805   Oco2      1 RES1   0.0000
    86 O94     36.0959  37.2854  48.3109   Oco2      1 RES1   0.0000
    87 O104    45.7409  37.0340  51.8689   O3        1 RES1   0.0000
    88 O117    42.9515  36.8235  52.1400   O3        1 RES1   0.0000
    89 O118    37.3051  36.8235  45.9514   O3        1 RES1   0.0000
    90 O154    43.1870  37.0696  37.0696   O3        1 RES1   0.0000
    91 O2      40.8595  37.3015  53.6471   Oco2      1 RES1   0.0000
    92 Zr13    51.0459  44.3885  35.4577   Zr        1 RES1   0.0000
    93 O13     49.7769  46.2189  35.5269   Oco2      1 RES1   0.0000
    94 O14     48.3145  51.8725  35.5269   Oco2      1 RES1   0.0000
    95 O37     50.1087  42.3648  35.2309   Oco2      1 RES1   0.0000
    96 O38     47.9827  37.8918  35.2309   Oco2      1 RES1   0.0000
    97 O66     51.2519  47.9685  35.7998   Oco2      1 RES1   0.0000
    98 O68     46.8395  50.1229  35.7998   Oco2      1 RES1   0.0000
    99 O78     51.8886  40.8631  35.2433   Oco2      1 RES1   0.0000
   100 O80     46.2028  39.3935  35.2433   Oco2      1 RES1   0.0000
   101 C13     50.6437  41.2144  35.2416   C.2       1 RES1   0.0000
   102 C14     47.4477  39.0422  35.2416   C.2       1 RES1   0.0000
   103 C37     49.6842  40.0302  35.2362   C.2       1 RES1   0.0000
   104 C38     48.4072  40.2264  35.2362   C.2       1 RES1   0.0000
   105 H13     50.0177  39.1617  35.2344   H         1 RES1   0.0000
   106 H14     48.0737  41.0949  35.2344   H         1 RES1   0.0000
   107 C61     50.1051  47.4441  35.6696   C.2       1 RES1   0.0000
   108 C62     47.9863  50.6473  35.6696   C.2       1 RES1   0.0000
   109 C85     48.9262  48.3947  35.6678   C.2       1 RES1   0.0000
   110 C86     49.1652  49.6967  35.6678   C.2       1 RES1   0.0000
   111 H37     48.0541  48.0719  35.6678   H         1 RES1   0.0000
   112 H38     50.0373  50.0195  35.6678   H         1 RES1   0.0000
   113 Zr2     42.1285  53.3059  35.8815   Zr        1 RES1   0.0000
   114 Zr6     53.7163  42.1285  35.4711   Zr        1 RES1   0.0000
   115 Zr12    53.3059  44.3751  38.1281   Zr        1 RES1   0.0000
   116 Zr14    47.0455  53.7029  35.4577   Zr        1 RES1   0.0000
   117 Zr18    53.2925  47.0455  35.8681   Zr        1 RES1   0.0000
   118 Zr20    44.7989  51.0459  35.8681   Zr        1 RES1   0.0000
   119 O6      35.8123  40.8595  37.3015   Oco2      1 RES1   0.0000
   120 O8      44.4443  39.3971  37.3015   Oco2      1 RES1   0.0000
   121 O54     37.9221  41.2055  35.5394   Oco2      1 RES1   0.0000
   122 O56     42.3345  39.0511  35.5394   Oco2      1 RES1   0.0000
   123 O85     49.7805  44.1607  37.2854   Oco2      1 RES1   0.0000
   124 O86     48.3109  36.0959  37.2854   Oco2      1 RES1   0.0000
   125 O108    51.8689  45.7409  37.0340   O3        1 RES1   0.0000
   126 O109    52.1400  42.9515  36.8235   O3        1 RES1   0.0000
   127 O110    45.9514  37.3051  36.8235   O3        1 RES1   0.0000
   128 Zr3     42.1285  44.7855  44.3751   Zr        1 RES1   0.0000
   129 Zr7     44.3751  42.1285  44.7855   Zr        1 RES1   0.0000
   130 Zr11    44.7855  44.3751  42.1285   Zr        1 RES1   0.0000
   131 Zr13    51.0459  44.3885  53.2925   Zr        1 RES1   0.0000
   132 Zr15    47.0455  44.3885  44.7989   Zr        1 RES1   0.0000
   133 Zr17    53.2925  51.0459  44.3885   Zr        1 RES1   0.0000
   134 Zr19    44.7989  47.0455  44.3885   Zr        1 RES1   0.0000
   135 Zr21    44.3885  53.2925  51.0459   Zr        1 RES1   0.0000
   136 Zr23    44.3885  44.7989  47.0455   Zr        1 RES1   0.0000
   137 O1      39.3971  42.9551  35.8123   Oco2      1 RES1   0.0000
   138 O3      40.8595  42.9551  44.4443   Oco2      1 RES1   0.0000
   139 O5      35.8123  39.3971  42.9551   Oco2      1 RES1   0.0000
   140 O7      44.4443  40.8595  42.9551   Oco2      1 RES1   0.0000
   141 O9      42.9551  35.8123  39.3971   Oco2      1 RES1   0.0000
   142 O11     42.9551  44.4443  40.8595   Oco2      1 RES1   0.0000
   143 O13     49.7769  46.2189  53.3617   Oco2      1 RES1   0.0000
   144 O14     48.3145  51.8725  53.3617   Oco2      1 RES1   0.0000
   145 O15     48.3145  46.2189  44.7297   Oco2      1 RES1   0.0000
   146 O16     49.7769  51.8725  44.7297   Oco2      1 RES1   0.0000
   147 O17     53.3617  49.7769  46.2189   Oco2      1 RES1   0.0000
   148 O18     53.3617  48.3145  51.8725   Oco2      1 RES1   0.0000
   149 O19     44.7297  48.3145  46.2189   Oco2      1 RES1   0.0000
   150 O20     44.7297  49.7769  51.8725   Oco2      1 RES1   0.0000
   151 O21     46.2189  53.3617  49.7769   Oco2      1 RES1   0.0000
   152 O22     51.8725  53.3617  48.3145   Oco2      1 RES1   0.0000
   153 O23     46.2189  44.7297  48.3145   Oco2      1 RES1   0.0000
   154 O24     51.8725  44.7297  49.7769   Oco2      1 RES1   0.0000
   155 O25     39.0653  46.8092  36.1083   Oco2      1 RES1   0.0000
   156 O26     41.1913  51.2822  36.1083   Oco2      1 RES1   0.0000
   157 O27     41.1913  46.8092  44.1483   Oco2      1 RES1   0.0000
   158 O28     39.0653  51.2822  44.1483   Oco2      1 RES1   0.0000
   159 O29     36.1083  39.0653  46.8092   Oco2      1 RES1   0.0000
   160 O30     36.1083  41.1913  51.2822   Oco2      1 RES1   0.0000
   161 O31     44.1483  41.1913  46.8092   Oco2      1 RES1   0.0000
   162 O32     44.1483  39.0653  51.2822   Oco2      1 RES1   0.0000
   163 O33     46.8092  36.1083  39.0653   Oco2      1 RES1   0.0000
   164 O34     51.2822  36.1083  41.1913   Oco2      1 RES1   0.0000
   165 O35     46.8092  44.1483  41.1913   Oco2      1 RES1   0.0000
   166 O36     51.2822  44.1483  39.0653   Oco2      1 RES1   0.0000
   167 O37     50.1087  42.3648  53.0657   Oco2      1 RES1   0.0000
   168 O38     47.9827  37.8918  53.0657   Oco2      1 RES1   0.0000
   169 O39     47.9827  42.3648  45.0257   Oco2      1 RES1   0.0000
   170 O40     50.1087  37.8918  45.0257   Oco2      1 RES1   0.0000
   171 O41     53.0657  50.1087  42.3648   Oco2      1 RES1   0.0000
   172 O42     53.0657  47.9827  37.8918   Oco2      1 RES1   0.0000
   173 O43     45.0257  47.9827  42.3648   Oco2      1 RES1   0.0000
   174 O44     45.0257  50.1087  37.8918   Oco2      1 RES1   0.0000
   175 O45     42.3648  53.0657  50.1087   Oco2      1 RES1   0.0000
   176 O46     37.8918  53.0657  47.9827   Oco2      1 RES1   0.0000
   177 O47     42.3648  45.0257  47.9827   Oco2      1 RES1   0.0000
   178 O48     37.8918  45.0257  50.1087   Oco2      1 RES1   0.0000
   179 O49     39.0511  44.7172  37.9221   Oco2      1 RES1   0.0000
   180 O51     41.2055  44.7172  42.3345   Oco2      1 RES1   0.0000
   181 O53     37.9221  39.0511  44.7172   Oco2      1 RES1   0.0000
   182 O55     42.3345  41.2055  44.7172   Oco2      1 RES1   0.0000
   183 O57     44.7172  37.9221  39.0511   Oco2      1 RES1   0.0000
   184 O59     44.7172  42.3345  41.2055   Oco2      1 RES1   0.0000
   185 O61     50.1229  44.4568  51.2519   Oco2      1 RES1   0.0000
   186 O62     47.9685  53.6346  51.2519   Oco2      1 RES1   0.0000
   187 O63     47.9685  44.4568  46.8395   Oco2      1 RES1   0.0000
   188 O64     50.1229  53.6346  46.8395   Oco2      1 RES1   0.0000
   189 O65     51.2519  50.1229  44.4568   Oco2      1 RES1   0.0000
   190 O66     51.2519  47.9685  53.6346   Oco2      1 RES1   0.0000
   191 O67     46.8395  47.9685  44.4568   Oco2      1 RES1   0.0000
   192 O68     46.8395  50.1229  53.6346   Oco2      1 RES1   0.0000
   193 O69     44.4568  51.2519  50.1229   Oco2      1 RES1   0.0000
   194 O70     53.6346  51.2519  47.9685   Oco2      1 RES1   0.0000
   195 O71     44.4568  46.8395  47.9685   Oco2      1 RES1   0.0000
   196 O72     53.6346  46.8395  50.1229   Oco2      1 RES1   0.0000
   197 O73     39.3935  45.0133  51.8886   Oco2      1 RES1   0.0000
   198 O74     40.8631  53.0781  51.8886   Oco2      1 RES1   0.0000
   199 O75     40.8631  45.0133  46.2028   Oco2      1 RES1   0.0000
   200 O76     39.3935  53.0781  46.2028   Oco2      1 RES1   0.0000
   201 O77     51.8886  39.3935  45.0133   Oco2      1 RES1   0.0000
   202 O78     51.8886  40.8631  53.0781   Oco2      1 RES1   0.0000
   203 O79     46.2028  40.8631  45.0133   Oco2      1 RES1   0.0000
   204 O80     46.2028  39.3935  53.0781   Oco2      1 RES1   0.0000
   205 O81     45.0133  51.8886  39.3935   Oco2      1 RES1   0.0000
   206 O82     53.0781  51.8886  40.8631   Oco2      1 RES1   0.0000
   207 O83     45.0133  46.2028  40.8631   Oco2      1 RES1   0.0000
   208 O84     53.0781  46.2028  39.3935   Oco2      1 RES1   0.0000
   209 O87     48.3109  44.1607  42.9712   Oco2      1 RES1   0.0000
   210 O88     49.7805  36.0959  42.9712   Oco2      1 RES1   0.0000
   211 O91     42.9712  48.3109  44.1607   Oco2      1 RES1   0.0000
   212 O92     42.9712  49.7805  36.0959   Oco2      1 RES1   0.0000
   213 O95     44.1607  42.9712  48.3109   Oco2      1 RES1   0.0000
   214 O96     36.0959  42.9712  49.7805   Oco2      1 RES1   0.0000
   215 C1      38.5303  47.9596  36.0976   C.2       1 RES1   0.0000
   216 C2      41.7263  50.1318  36.0976   C.2       1 RES1   0.0000
   217 C3      41.7263  47.9596  44.1590   C.2       1 RES1   0.0000
   218 C4      38.5303  50.1318  44.1590   C.2       1 RES1   0.0000
   219 C5      36.0976  38.5303  47.9596   C.2       1 RES1   0.0000
   220 C6      36.0976  41.7263  50.1318   C.2       1 RES1   0.0000
   221 C7      44.1590  41.7263  47.9596   C.2       1 RES1   0.0000
   222 C8      44.1590  38.5303  50.1318   C.2       1 RES1   0.0000
   223 C9      47.9596  36.0976  38.5303   C.2       1 RES1   0.0000
   224 C10     50.1318  36.0976  41.7263   C.2       1 RES1   0.0000
   225 C11     47.9596  44.1590  41.7263   C.2       1 RES1   0.0000
   226 C12     50.1318  44.1590  38.5303   C.2       1 RES1   0.0000
   227 C13     50.6437  41.2144  53.0764   C.2       1 RES1   0.0000
   228 C14     47.4477  39.0422  53.0764   C.2       1 RES1   0.0000
   229 C15     47.4477  41.2144  45.0150   C.2       1 RES1   0.0000
   230 C16     50.6437  39.0422  45.0150   C.2       1 RES1   0.0000
   231 C17     53.0764  50.6437  41.2144   C.2       1 RES1   0.0000
   232 C18     53.0764  47.4477  39.0422   C.2       1 RES1   0.0000
   233 C19     45.0150  47.4477  41.2144   C.2       1 RES1   0.0000
   234 C20     45.0150  50.6437  39.0422   C.2       1 RES1   0.0000
   235 C21     41.2144  53.0764  50.6437   C.2       1 RES1   0.0000
   236 C22     39.0422  53.0764  47.4477   C.2       1 RES1   0.0000
   237 C23     41.2144  45.0150  47.4477   C.2       1 RES1   0.0000
   238 C24     39.0422  45.0150  50.6437   C.2       1 RES1   0.0000
   239 C25     39.4898  49.1438  36.1030   C.2       1 RES1   0.0000
   240 C26     40.7668  48.9476  36.1030   C.2       1 RES1   0.0000
   241 C27     40.7668  49.1438  44.1536   C.2       1 RES1   0.0000
   242 C28     39.4898  48.9476  44.1536   C.2       1 RES1   0.0000
   243 C29     36.1030  39.4898  49.1438   C.2       1 RES1   0.0000
   244 C30     36.1030  40.7668  48.9476   C.2       1 RES1   0.0000
   245 C31     44.1536  40.7668  49.1438   C.2       1 RES1   0.0000
   246 C32     44.1536  39.4898  48.9476   C.2       1 RES1   0.0000
   247 C33     49.1438  36.1030  39.4898   C.2       1 RES1   0.0000
   248 C34     48.9476  36.1030  40.7668   C.2       1 RES1   0.0000
   249 C35     49.1438  44.1536  40.7668   C.2       1 RES1   0.0000
   250 C36     48.9476  44.1536  39.4898   C.2       1 RES1   0.0000
   251 C37     49.6842  40.0302  53.0710   C.2       1 RES1   0.0000
   252 C38     48.4072  40.2264  53.0710   C.2       1 RES1   0.0000
   253 C39     48.4072  40.0302  45.0204   C.2       1 RES1   0.0000
   254 C40     49.6842  40.2264  45.0204   C.2       1 RES1   0.0000
   255 C41     53.0710  49.6842  40.0302   C.2       1 RES1   0.0000
   256 C42     53.0710  48.4072  40.2264   C.2       1 RES1   0.0000
   257 C43     45.0204  48.4072  40.0302   C.2       1 RES1   0.0000
   258 C44     45.0204  49.6842  40.2264   C.2       1 RES1   0.0000
   259 C45     40.0302  53.0710  49.6842   C.2       1 RES1   0.0000
   260 C46     40.2264  53.0710  48.4072   C.2       1 RES1   0.0000
   261 C47     40.0302  45.0204  48.4072   C.2       1 RES1   0.0000
   262 C48     40.2264  45.0204  49.6842   C.2       1 RES1   0.0000
   263 H1      39.1563  50.0123  36.1048   H         1 RES1   0.0000
   264 H2      41.1003  48.0791  36.1048   H         1 RES1   0.0000
   265 H3      41.1003  50.0123  44.1518   H         1 RES1   0.0000
   266 H4      39.1563  48.0791  44.1518   H         1 RES1   0.0000
   267 H5      36.1048  39.1563  50.0123   H         1 RES1   0.0000
   268 H6      36.1048  41.1003  48.0791   H         1 RES1   0.0000
   269 H7      44.1518  41.1003  50.0123   H         1 RES1   0.0000
   270 H8      44.1518  39.1563  48.0791   H         1 RES1   0.0000
   271 H9      50.0123  36.1048  39.1563   H         1 RES1   0.0000
   272 H10     48.0791  36.1048  41.1003   H         1 RES1   0.0000
   273 H11     50.0123  44.1518  41.1003   H         1 RES1   0.0000
   274 H12     48.0791  44.1518  39.1563   H         1 RES1   0.0000
   275 H13     50.0177  39.1617  53.0692   H         1 RES1   0.0000
   276 H14     48.0737  41.0949  53.0692   H         1 RES1   0.0000
   277 H15     48.0737  39.1617  45.0222   H         1 RES1   0.0000
   278 H16     50.0177  41.0949  45.0222   H         1 RES1   0.0000
   279 H17     53.0692  50.0177  39.1617   H         1 RES1   0.0000
   280 H18     53.0692  48.0737  41.0949   H         1 RES1   0.0000
   281 H19     45.0222  48.0737  39.1617   H         1 RES1   0.0000
   282 H20     45.0222  50.0177  41.0949   H         1 RES1   0.0000
   283 H21     39.1617  53.0692  50.0177   H         1 RES1   0.0000
   284 H22     41.0949  53.0692  48.0737   H         1 RES1   0.0000
   285 H23     39.1617  45.0222  48.0737   H         1 RES1   0.0000
   286 H24     41.0949  45.0222  50.0177   H         1 RES1   0.0000
   287 C49     39.0689  41.7299  35.6696   C.2       1 RES1   0.0000
   288 C50     41.1877  38.5267  35.6696   C.2       1 RES1   0.0000
   289 C51     41.1877  41.7299  44.5870   C.2       1 RES1   0.0000
   290 C52     39.0689  38.5267  44.5870   C.2       1 RES1   0.0000
   291 C53     35.6696  39.0689  41.7299   C.2       1 RES1   0.0000
   292 C54     35.6696  41.1877  38.5267   C.2       1 RES1   0.0000
   293 C55     44.5870  41.1877  41.7299   C.2       1 RES1   0.0000
   294 C56     44.5870  39.0689  38.5267   C.2       1 RES1   0.0000
   295 C57     41.7299  35.6696  39.0689   C.2       1 RES1   0.0000
   296 C58     38.5267  35.6696  41.1877   C.2       1 RES1   0.0000
   297 C59     41.7299  44.5870  41.1877   C.2       1 RES1   0.0000
   298 C60     38.5267  44.5870  39.0689   C.2       1 RES1   0.0000
   299 C61     50.1051  47.4441  53.5044   C.2       1 RES1   0.0000
   300 C62     47.9863  50.6473  53.5044   C.2       1 RES1   0.0000
   301 C63     47.9863  47.4441  44.5870   C.2       1 RES1   0.0000
   302 C64     50.1051  50.6473  44.5870   C.2       1 RES1   0.0000
   303 C65     53.5044  50.1051  47.4441   C.2       1 RES1   0.0000
   304 C66     53.5044  47.9863  50.6473   C.2       1 RES1   0.0000
   305 C67     44.5870  47.9863  47.4441   C.2       1 RES1   0.0000
   306 C68     44.5870  50.1051  50.6473   C.2       1 RES1   0.0000
   307 C69     47.4441  53.5044  50.1051   C.2       1 RES1   0.0000
   308 C70     50.6473  53.5044  47.9863   C.2       1 RES1   0.0000
   309 C71     47.4441  44.5870  47.9863   C.2       1 RES1   0.0000
   310 C72     50.6473  44.5870  50.1051   C.2       1 RES1   0.0000
   311 C73     40.2478  40.7793  35.6714   C.2       1 RES1   0.0000
   312 C74     40.0088  39.4773  35.6714   C.2       1 RES1   0.0000
   313 C75     40.0088  40.7793  44.5852   C.2       1 RES1   0.0000
   314 C76     40.2478  39.4773  44.5852   C.2       1 RES1   0.0000
   315 C77     35.6714  40.2478  40.7793   C.2       1 RES1   0.0000
   316 C78     35.6714  40.0088  39.4773   C.2       1 RES1   0.0000
   317 C79     44.5852  40.0088  40.7793   C.2       1 RES1   0.0000
   318 C80     44.5852  40.2478  39.4773   C.2       1 RES1   0.0000
   319 C81     40.7793  35.6714  40.2478   C.2       1 RES1   0.0000
   320 C82     39.4773  35.6714  40.0088   C.2       1 RES1   0.0000
   321 C83     40.7793  44.5852  40.0088   C.2       1 RES1   0.0000
   322 C84     39.4773  44.5852  40.2478   C.2       1 RES1   0.0000
   323 C85     48.9262  48.3947  53.5026   C.2       1 RES1   0.0000
   324 C86     49.1652  49.6967  53.5026   C.2       1 RES1   0.0000
   325 C87     49.1652  48.3947  44.5888   C.2       1 RES1   0.0000
   326 C88     48.9262  49.6967  44.5888   C.2       1 RES1   0.0000
   327 C89     53.5026  48.9262  48.3947   C.2       1 RES1   0.0000
   328 C90     53.5026  49.1652  49.6967   C.2       1 RES1   0.0000
   329 C91     44.5888  49.1652  48.3947   C.2       1 RES1   0.0000
   330 C92     44.5888  48.9262  49.6967   C.2       1 RES1   0.0000
   331 C93     48.3947  53.5026  48.9262   C.2       1 RES1   0.0000
   332 C94     49.6967  53.5026  49.1652   C.2       1 RES1   0.0000
   333 C95     48.3947  44.5888  49.1652   C.2       1 RES1   0.0000
   334 C96     49.6967  44.5888  48.9262   C.2       1 RES1   0.0000
   335 H25     41.1199  41.1021  35.6714   H         1 RES1   0.0000
   336 H26     39.1367  39.1545  35.6714   H         1 RES1   0.0000
   337 H27     39.1367  41.1021  44.5852   H         1 RES1   0.0000
   338 H28     41.1199  39.1545  44.5852   H         1 RES1   0.0000
   339 H29     35.6714  41.1199  41.1021   H         1 RES1   0.0000
   340 H30     35.6714  39.1367  39.1545   H         1 RES1   0.0000
   341 H31     44.5852  39.1367  41.1021   H         1 RES1   0.0000
   342 H32     44.5852  41.1199  39.1545   H         1 RES1   0.0000
   343 H33     41.1021  35.6714  41.1199   H         1 RES1   0.0000
   344 H34     39.1545  35.6714  39.1367   H         1 RES1   0.0000
   345 H35     41.1021  44.5852  39.1367   H         1 RES1   0.0000
   346 H36     39.1545  44.5852  41.1199   H         1 RES1   0.0000
   347 H37     48.0541  48.0719  53.5026   H         1 RES1   0.0000
   348 H38     50.0373  50.0195  53.5026   H         1 RES1   0.0000
   349 H39     50.0373  48.0719  44.5888   H         1 RES1   0.0000
   350 H40     48.0541  50.0195  44.5888   H         1 RES1   0.0000
   351 H41     53.5026  48.0541  48.0719   H         1 RES1   0.0000
   352 H42     53.5026  50.0373  50.0195   H         1 RES1   0.0000
   353 H43     44.5888  50.0373  48.0719   H         1 RES1   0.0000
   354 H44     44.5888  48.0541  50.0195   H         1 RES1   0.0000
   355 H45     48.0719  53.5026  48.0541   H         1 RES1   0.0000
   356 H46     50.0195  53.5026  50.0373   H         1 RES1   0.0000
   357 H47     48.0719  44.5888  50.0373   H         1 RES1   0.0000
   358 H48     50.0195  44.5888  48.0541   H         1 RES1   0.0000
   359 O98     43.2226  51.8689  52.3505   O3        1 RES1   0.0000
   360 O99     43.2226  46.2225  45.7409   O3        1 RES1   0.0000
   361 O101    52.3505  37.0340  46.2225   O3        1 RES1   0.0000
   362 O102    52.3505  43.2226  51.8689   O3        1 RES1   0.0000
   363 O103    45.7409  43.2226  46.2225   O3        1 RES1   0.0000
   364 O105    46.2225  52.3505  37.0340   O3        1 RES1   0.0000
   365 O106    51.8689  52.3505  43.2226   O3        1 RES1   0.0000
   366 O107    46.2225  45.7409  43.2226   O3        1 RES1   0.0000
   367 O111    45.9514  42.9515  43.4331   O3        1 RES1   0.0000
   368 O112    52.1400  37.3051  43.4331   O3        1 RES1   0.0000
   369 O115    43.4331  45.9514  42.9515   O3        1 RES1   0.0000
   370 O116    43.4331  52.1400  37.3051   O3        1 RES1   0.0000
   371 O119    42.9515  43.4331  45.9514   O3        1 RES1   0.0000
   372 O155    43.1870  43.1870  43.1870   O3        1 RES1   0.0000
   373 O157    52.1044  45.9870  52.1044   O3        1 RES1   0.0000
   374 O158    45.9870  52.1044  52.1044   O3        1 RES1   0.0000
   375 O159    45.9870  45.9870  45.9870   O3        1 RES1   0.0000
   376 O160    52.1044  52.1044  45.9870   O3        1 RES1   0.0000
   377 Zr2     42.1285  53.3059  53.7163   Zr        1 RES1   0.0000
   378 Zr5     53.7163  38.1281  44.7855   Zr        1 RES1   0.0000
   379 Zr6     53.7163  42.1285  53.3059   Zr        1 RES1   0.0000
   380 Zr9     44.7855  53.7163  38.1281   Zr        1 RES1   0.0000
   381 Zr10    53.3059  53.7163  42.1285   Zr        1 RES1   0.0000
   382 Zr14    47.0455  53.7029  53.2925   Zr        1 RES1   0.0000
   383 Zr16    51.0459  53.7029  44.7989   Zr        1 RES1   0.0000
   384 Zr18    53.2925  47.0455  53.7029   Zr        1 RES1   0.0000
   385 Zr20    44.7989  51.0459  53.7029   Zr        1 RES1   0.0000
   386 Zr22    53.7029  53.2925  47.0455   Zr        1 RES1   0.0000
   387 Zr24    53.7029  44.7989  51.0459   Zr        1 RES1   0.0000
   388 O50     41.2055  53.3742  37.9221   Oco2      1 RES1   0.0000
   389 O52     39.0511  53.3742  42.3345   Oco2      1 RES1   0.0000
   390 O54     37.9221  41.2055  53.3742   Oco2      1 RES1   0.0000
   391 O56     42.3345  39.0511  53.3742   Oco2      1 RES1   0.0000
   392 O58     53.3742  37.9221  41.2055   Oco2      1 RES1   0.0000
   393 O60     53.3742  42.3345  39.0511   Oco2      1 RES1   0.0000
   394 O1      39.3971  42.9551  53.6471   Oco2      1 RES1   0.0000
   395 C49     39.0689  41.7299  53.5044   C.2       1 RES1   0.0000
   396 C50     41.1877  38.5267  53.5044   C.2       1 RES1   0.0000
   397 C73     40.2478  40.7793  53.5062   C.2       1 RES1   0.0000
   398 C74     40.0088  39.4773  53.5062   C.2       1 RES1   0.0000
   399 H25     41.1199  41.1021  53.5062   H         1 RES1   0.0000
   400 H26     39.1367  39.1545  53.5062   H         1 RES1   0.0000
   401 O120    37.3051  43.4331  52.1400   O3        1 RES1   0.0000
   402 O9      42.9551  53.6471  39.3971   Oco2      1 RES1   0.0000
   403 C57     41.7299  53.5044  39.0689   C.2       1 RES1   0.0000
   404 C58     38.5267  53.5044  41.1877   C.2       1 RES1   0.0000
   405 C81     40.7793  53.5062  40.2478   C.2       1 RES1   0.0000
   406 C82     39.4773  53.5062  40.0088   C.2       1 RES1   0.0000
   407 H33     41.1021  53.5062  41.1199   H         1 RES1   0.0000
   408 H34     39.1545  53.5062  39.1367   H         1 RES1   0.0000
   409 O6      53.6471  40.8595  37.3015   Oco2      1 RES1   0.0000
   410 O5      53.6471  39.3971  42.9551   Oco2      1 RES1   0.0000
   411 C53     53.5044  39.0689  41.7299   C.2       1 RES1   0.0000
   412 C54     53.5044  41.1877  38.5267   C.2       1 RES1   0.0000
   413 C77     53.5062  40.2478  40.7793   C.2       1 RES1   0.0000
   414 C78     53.5062  40.0088  39.4773   C.2       1 RES1   0.0000
   415 H29     53.5062  41.1199  41.1021   H         1 RES1   0.0000
   416 H30     53.5062  39.1367  39.1545   H         1 RES1   0.0000
   417 H7      37.8922  42.5345  51.9507   H7        1 RES1   0.0000
   418 H7      47.0023  51.7559  51.9151   H7        1 RES1   0.0000
   419 H7      51.6732  46.9700  51.9151   H7        1 RES1   0.0000
   420 H7      42.9586  46.4669  42.1165   H7        1 RES1   0.0000
   421 H7      51.8586  37.9467  42.5981   H7        1 RES1   0.0000
   422 H7      46.4677  42.1612  42.8881   H7        1 RES1   0.0000
   423 H7      47.2959  52.3505  37.2233   H7        1 RES1   0.0000
   424 H7      46.1241  42.6360  47.0575   H7        1 RES1   0.0000
   425 H7      52.3197  37.4055  47.2468   H7        1 RES1   0.0000
   426 H7      42.5833  46.9170  46.2859   H7        1 RES1   0.0000
   427 H7      51.4377  46.7239  37.2233   H7        1 RES1   0.0000
   428 H7      42.1282  37.2463  37.2589   H7        1 RES1   0.0000
   429 H7      41.8927  37.0002  51.9507   H7        1 RES1   0.0000
   430 H7      37.3331  42.1464  37.2589   H7        1 RES1   0.0000
   431 H7      36.9150  51.7786  41.9272   H7        1 RES1   0.0000
   432 H7      37.2060  51.1897  46.5759   H7        1 RES1   0.0000
@<TRIPOS>BOND
     1     1     2   un
     2     1     3   un
     3     1    30   un
     4     1    46   un
     5     1    61   un
     6     1    82   un
     7     1    84   un
     8     1    89   un
     9     2    30   un
    10     2    36   un
    11     2    38   un
    12     2    46   un
    13     3    30   un
    14     3    57   un
    15     3    86   un
    16     3    89   un
    17     4     5   un
    18     4    28   un
    19     4    45   un
    20     4   119   un
    21     4   121   un
    22     5     6   un
    23     5    15   un
    24     5    28   un
    25     5    37   un
    26     5    39   un
    27     5    44   un
    28     5    45   un
    29     6    11   un
    30     6    28   un
    31     6    41   un
    32     6    44   un
    33     7     8   un
    34     7    10   un
    35     7    29   un
    36     7    32   un
    37     7    34   un
    38     7    40   un
    39     7    42   un
    40     7    43   un
    41     8    22   un
    42     9    23   un
    43     9    33   un
    44    10    16   un
    45    11    17   un
    46    12    22   un
    47    12    34   un
    48    13    23   un
    49    13    35   un
    50    14    16   un
    51    14    32   un
    52    15    17   un
    53    16    18   un
    54    17    19   un
    55    18    19   un
    56    18    20   un
    57    19    21   un
    58    22    24   un
    59    23    25   un
    60    24    25   un
    61    24    26   un
    62    25    27   un
    63    28    44   un
    64    28    45   un
    65    28   137   un
    66    28   155   un
    67    28   179   un
    68    29    32   un
    69    29    34   un
    70    29    42   un
    71    29    43   un
    72    29   158   un
    73    29   200   un
    74    29   389   un
    75    30    46   un
    76    30    89   un
    77    30   139   un
    78    30   159   un
    79    30   181   un
    80    31    35   un
    81    31    47   un
    82    31   160   un
    83    31   390   un
    84    31   401   un
    85    32    43   un
    86    32    49   un
    87    33    35   un
    88    33    47   un
    89    33    48   un
    90    34    42   un
    91    34   176   un
    92    35    47   un
    93    35    48   un
    94    35   178   un
    95    35   214   un
    96    35   401   un
    97    36   296   un
    98    37   298   un
    99    38   291   un
   100    39   292   un
   101    40   218   un
   102    41   215   un
   103    42   432   un
   104    43   431   un
   105    45   430   un
   106    47    48   un
   107    47   197   un
   108    47   394   un
   109    47   401   un
   110    49   404   un
   111    50    51   un
   112    50    76   un
   113    50    81   un
   114    50    83   un
   115    50    90   un
   116    51    52   un
   117    51    76   un
   118    51    90   un
   119    51   100   un
   120    51   120   un
   121    51   122   un
   122    51   127   un
   123    52    76   un
   124    52    96   un
   125    52   124   un
   126    52   127   un
   127    53    54   un
   128    53    56   un
   129    53    74   un
   130    53    75   un
   131    53    78   un
   132    53    85   un
   133    53    87   un
   134    53    88   un
   135    54    68   un
   136    55    69   un
   137    55    80   un
   138    56    62   un
   139    57    63   un
   140    58    68   un
   141    58    78   un
   142    59    69   un
   143    59    79   un
   144    60    62   un
   145    60    74   un
   146    61    63   un
   147    62    64   un
   148    63    65   un
   149    64    65   un
   150    64    66   un
   151    65    67   un
   152    68    70   un
   153    69    71   un
   154    70    71   un
   155    70    72   un
   156    71    73   un
   157    74    75   un
   158    74    88   un
   159    74    91   un
   160    75    78   un
   161    75    87   un
   162    75    88   un
   163    75   162   un
   164    75   204   un
   165    75   391   un
   166    76    90   un
   167    76   127   un
   168    76   141   un
   169    76   163   un
   170    76   183   un
   171    77    79   un
   172    77   164   un
   173    77   368   un
   174    77   378   un
   175    77   392   un
   176    78    87   un
   177    78   168   un
   178    79    80   un
   179    79   170   un
   180    79   210   un
   181    79   361   un
   182    79   368   un
   183    79   378   un
   184    80   361   un
   185    80   378   un
   186    81   288   un
   187    82   290   un
   188    83   295   un
   189    84   296   un
   190    85   222   un
   191    86   219   un
   192    88   429   un
   193    90   428   un
   194    91   396   un
   195    92    93   un
   196    92    95   un
   197    92   114   un
   198    92   115   un
   199    92   117   un
   200    92   123   un
   201    92   125   un
   202    92   126   un
   203    93   107   un
   204    94   108   un
   205    94   116   un
   206    95   101   un
   207    96   102   un
   208    97   107   un
   209    97   117   un
   210    98   108   un
   211    98   118   un
   212    99   101   un
   213    99   114   un
   214   100   102   un
   215   101   103   un
   216   102   104   un
   217   103   104   un
   218   103   105   un
   219   104   106   un
   220   107   109   un
   221   108   110   un
   222   109   110   un
   223   109   111   un
   224   110   112   un
   225   113   118   un
   226   113   156   un
   227   113   370   un
   228   113   380   un
   229   113   388   un
   230   114   115   un
   231   114   126   un
   232   114   409   un
   233   115   117   un
   234   115   125   un
   235   115   126   un
   236   115   166   un
   237   115   208   un
   238   115   393   un
   239   116   118   un
   240   116   364   un
   241   116   380   un
   242   117   125   un
   243   117   172   un
   244   118   174   un
   245   118   212   un
   246   118   364   un
   247   118   370   un
   248   118   380   un
   249   119   292   un
   250   120   294   un
   251   121   287   un
   252   122   288   un
   253   123   226   un
   254   124   223   un
   255   125   427   un
   256   128   129   un
   257   128   130   un
   258   128   134   un
   259   128   136   un
   260   128   138   un
   261   128   157   un
   262   128   180   un
   263   128   199   un
   264   128   360   un
   265   128   369   un
   266   128   371   un
   267   128   372   un
   268   129   130   un
   269   129   132   un
   270   129   136   un
   271   129   140   un
   272   129   161   un
   273   129   182   un
   274   129   203   un
   275   129   363   un
   276   129   367   un
   277   129   371   un
   278   129   372   un
   279   130   132   un
   280   130   134   un
   281   130   142   un
   282   130   165   un
   283   130   184   un
   284   130   207   un
   285   130   366   un
   286   130   367   un
   287   130   369   un
   288   130   372   un
   289   131   143   un
   290   131   167   un
   291   131   185   un
   292   131   362   un
   293   131   373   un
   294   131   379   un
   295   131   384   un
   296   131   387   un
   297   132   134   un
   298   132   136   un
   299   132   145   un
   300   132   169   un
   301   132   187   un
   302   132   209   un
   303   132   363   un
   304   132   366   un
   305   132   367   un
   306   132   375   un
   307   133   147   un
   308   133   171   un
   309   133   189   un
   310   133   365   un
   311   133   376   un
   312   133   381   un
   313   133   383   un
   314   133   386   un
   315   134   136   un
   316   134   149   un
   317   134   173   un
   318   134   191   un
   319   134   211   un
   320   134   360   un
   321   134   366   un
   322   134   369   un
   323   134   375   un
   324   135   151   un
   325   135   175   un
   326   135   193   un
   327   135   359   un
   328   135   374   un
   329   135   377   un
   330   135   382   un
   331   135   385   un
   332   136   153   un
   333   136   177   un
   334   136   195   un
   335   136   213   un
   336   136   360   un
   337   136   363   un
   338   136   371   un
   339   136   375   un
   340   137   287   un
   341   138   289   un
   342   139   291   un
   343   140   293   un
   344   141   295   un
   345   142   297   un
   346   143   299   un
   347   144   300   un
   348   144   382   un
   349   145   301   un
   350   146   302   un
   351   146   383   un
   352   147   303   un
   353   148   304   un
   354   148   384   un
   355   149   305   un
   356   150   306   un
   357   150   385   un
   358   151   307   un
   359   152   308   un
   360   152   386   un
   361   153   309   un
   362   154   310   un
   363   154   387   un
   364   155   215   un
   365   156   216   un
   366   157   217   un
   367   158   218   un
   368   159   219   un
   369   160   220   un
   370   161   221   un
   371   162   222   un
   372   163   223   un
   373   164   224   un
   374   165   225   un
   375   166   226   un
   376   167   227   un
   377   168   228   un
   378   169   229   un
   379   170   230   un
   380   171   231   un
   381   172   232   un
   382   173   233   un
   383   174   234   un
   384   175   235   un
   385   176   236   un
   386   177   237   un
   387   178   238   un
   388   179   298   un
   389   180   297   un
   390   181   290   un
   391   182   289   un
   392   183   294   un
   393   184   293   un
   394   185   310   un
   395   186   307   un
   396   186   382   un
   397   187   309   un
   398   188   308   un
   399   188   383   un
   400   189   302   un
   401   190   299   un
   402   190   384   un
   403   191   301   un
   404   192   300   un
   405   192   385   un
   406   193   306   un
   407   194   303   un
   408   194   386   un
   409   195   305   un
   410   196   304   un
   411   196   387   un
   412   197   238   un
   413   198   235   un
   414   198   377   un
   415   199   237   un
   416   200   236   un
   417   201   230   un
   418   201   378   un
   419   202   227   un
   420   202   379   un
   421   203   229   un
   422   204   228   un
   423   205   234   un
   424   205   380   un
   425   206   231   un
   426   206   381   un
   427   207   233   un
   428   208   232   un
   429   209   225   un
   430   210   224   un
   431   211   217   un
   432   212   216   un
   433   213   221   un
   434   214   220   un
   435   215   239   un
   436   216   240   un
   437   217   241   un
   438   218   242   un
   439   219   243   un
   440   220   244   un
   441   221   245   un
   442   222   246   un
   443   223   247   un
   444   224   248   un
   445   225   249   un
   446   226   250   un
   447   227   251   un
   448   228   252   un
   449   229   253   un
   450   230   254   un
   451   231   255   un
   452   232   256   un
   453   233   257   un
   454   234   258   un
   455   235   259   un
   456   236   260   un
   457   237   261   un
   458   238   262   un
   459   239   240   un
   460   239   263   un
   461   240   264   un
   462   241   242   un
   463   241   265   un
   464   242   266   un
   465   243   244   un
   466   243   267   un
   467   244   268   un
   468   245   246   un
   469   245   269   un
   470   246   270   un
   471   247   248   un
   472   247   271   un
   473   248   272   un
   474   249   250   un
   475   249   273   un
   476   250   274   un
   477   251   252   un
   478   251   275   un
   479   252   276   un
   480   253   254   un
   481   253   277   un
   482   254   278   un
   483   255   256   un
   484   255   279   un
   485   256   280   un
   486   257   258   un
   487   257   281   un
   488   258   282   un
   489   259   260   un
   490   259   283   un
   491   260   284   un
   492   261   262   un
   493   261   285   un
   494   262   286   un
   495   287   311   un
   496   288   312   un
   497   289   313   un
   498   290   314   un
   499   291   315   un
   500   292   316   un
   501   293   317   un
   502   294   318   un
   503   295   319   un
   504   296   320   un
   505   297   321   un
   506   298   322   un
   507   299   323   un
   508   300   324   un
   509   301   325   un
   510   302   326   un
   511   303   327   un
   512   304   328   un
   513   305   329   un
   514   306   330   un
   515   307   331   un
   516   308   332   un
   517   309   333   un
   518   310   334   un
   519   311   312   un
   520   311   335   un
   521   312   336   un
   522   313   314   un
   523   313   337   un
   524   314   338   un
   525   315   316   un
   526   315   339   un
   527   316   340   un
   528   317   318   un
   529   317   341   un
   530   318   342   un
   531   319   320   un
   532   319   343   un
   533   320   344   un
   534   321   322   un
   535   321   345   un
   536   322   346   un
   537   323   324   un
   538   323   347   un
   539   324   348   un
   540   325   326   un
   541   325   349   un
   542   326   350   un
   543   327   328   un
   544   327   351   un
   545   328   352   un
   546   329   330   un
   547   329   353   un
   548   330   354   un
   549   331   332   un
   550   331   355   un
   551   332   356   un
   552   333   334   un
   553   333   357   un
   554   334   358   un
   555   359   377   un
   556   359   385   un
   557   360   426   un
   558   361   378   un
   559   361   425   un
   560   362   379   un
   561   362   387   un
   562   363   424   un
   563   364   380   un
   564   364   423   un
   565   365   381   un
   566   365   383   un
   567   367   422   un
   568   368   378   un
   569   368   421   un
   570   369   420   un
   571   370   380   un
   572   373   384   un
   573   373   387   un
   574   373   419   un
   575   374   382   un
   576   374   385   un
   577   374   418   un
   578   376   383   un
   579   376   386   un
   580   377   385   un
   581   378   410   un
   582   379   387   un
   583   380   402   un
   584   381   383   un
   585   382   385   un
   586   383   386   un
   587   384   387   un
   588   388   403   un
   589   389   404   un
   590   390   395   un
   591   391   396   un
   592   392   411   un
   593   393   412   un
   594   394   395   un
   595   395   397   un
   596   396   398   un
   597   397   398   un
   598   397   399   un
   599   398   400   un
   600   401   417   un
   601   402   403   un
   602   403   405   un
   603   404   406   un
   604   405   406   un
   605   405   407   un
   606   406   408   un
   607   409   412   un
   608   410   411   un
   609   411   413   un
   610   412   414   un
   611   413   414   un
   612   413   415   un
   613   414   416   un
@<TRIPOS>SUBSTRUCTURE
     1 RES1        1 GROUP             0 ****  ****    0  
@<TRIPOS>CRYSIN
   17.8348   17.8348   17.8348   90.0000   90.0000   90.0000     1     1
