@<TRIPOS>MOLECULE
MOL
  1842  2254     1     0     0
SMALL
NO_CHARGES
****
ITC 2023. ALL RIGHTS RESERVED.

@<TRIPOS>ATOM
     1 Zr      11.7465  11.7465  14.2309   Zr        1 UIO1   0.0000
     2 O1      13.6967  11.7465  15.2782   O1        1 UIO1   0.0000
     3 C2      15.9537  11.7465  15.9537   C2        1 UIO1   0.0000
     4 C3      17.2883  11.7465  15.5917   C3        1 UIO1   0.0000
     5 H1      17.5327  11.7465  14.6738   H1        1 UIO1   0.0000
     6 O3      10.6988  10.6988  12.7942   O3        1 UIO1   0.0000
     7 C1      14.8956  11.7465  14.8956   C1        1 UIO1   0.0000
     8 O1       9.7963  11.7465  15.2782   O1        1 UIO1   0.0000
     9 C2       7.5393  11.7465  15.9537   C2        1 UIO1   0.0000
    10 C3       6.2047  11.7465  15.5917   C3        1 UIO1   0.0000
    11 H1       5.9603  11.7465  14.6738   H1        1 UIO1   0.0000
    12 O3      12.7942  12.7942  12.7942   O3        1 UIO1   0.0000
    13 C1       8.5974  11.7465  14.8956   C1        1 UIO1   0.0000
    14 Zr      14.2309  11.7465  11.7465   Zr        1 UIO1   0.0000
    15 O1      15.2782  13.6967  11.7465   O1        1 UIO1   0.0000
    16 O3      12.7942  10.6988  10.6988   O3        1 UIO1   0.0000
    17 O1      15.2782   9.7963  11.7465   O1        1 UIO1   0.0000
    18 Zr       9.2621  11.7465  11.7465   Zr        1 UIO1   0.0000
    19 O1       8.2148   9.7963  11.7465   O1        1 UIO1   0.0000
    20 C2       7.5393   7.5393  11.7465   C2        1 UIO1   0.0000
    21 C3       7.9013   6.2047  11.7465   C3        1 UIO1   0.0000
    22 H1       8.8192   5.9603  11.7465   H1        1 UIO1   0.0000
    23 O3      10.6988  12.7942  10.6988   O3        1 UIO1   0.0000
    24 C1       8.5974   8.5974  11.7465   C1        1 UIO1   0.0000
    25 O1       8.2148  13.6967  11.7465   O1        1 UIO1   0.0000
    26 Zr      11.7465  14.2309  11.7465   Zr        1 UIO1   0.0000
    27 O1      11.7465  15.2782  13.6967   O1        1 UIO1   0.0000
    28 C2      11.7465  15.9537  15.9537   C2        1 UIO1   0.0000
    29 C3      11.7465  15.5917  17.2883   C3        1 UIO1   0.0000
    30 H1      11.7465  14.6738  17.5327   H1        1 UIO1   0.0000
    31 C1      11.7465  14.8956  14.8956   C1        1 UIO1   0.0000
    32 O1      11.7465  15.2782   9.7963   O1        1 UIO1   0.0000
    33 C2      11.7465  15.9537   7.5393   C2        1 UIO1   0.0000
    34 C3      11.7465  15.5917   6.2047   C3        1 UIO1   0.0000
    35 H1      11.7465  14.6738   5.9603   H1        1 UIO1   0.0000
    36 C1      11.7465  14.8956   8.5974   C1        1 UIO1   0.0000
    37 Zr      11.7465   9.2621  11.7465   Zr        1 UIO1   0.0000
    38 O1      11.7465   8.2148   9.7963   O1        1 UIO1   0.0000
    39 C2      11.7465   7.5393   7.5393   C2        1 UIO1   0.0000
    40 C3      11.7465   7.9013   6.2047   C3        1 UIO1   0.0000
    41 H1      11.7465   8.8192   5.9603   H1        1 UIO1   0.0000
    42 C1      11.7465   8.5974   8.5974   C1        1 UIO1   0.0000
    43 O1      11.7465   8.2148  13.6967   O1        1 UIO1   0.0000
    44 C2      11.7465   7.5393  15.9537   C2        1 UIO1   0.0000
    45 C3      11.7465   7.9013  17.2883   C3        1 UIO1   0.0000
    46 H1      11.7465   8.8192  17.5327   H1        1 UIO1   0.0000
    47 C1      11.7465   8.5974  14.8956   C1        1 UIO1   0.0000
    48 Zr      11.7465  11.7465   9.2621   Zr        1 UIO1   0.0000
    49 O1      11.7465  13.6967   8.2148   O1        1 UIO1   0.0000
    50 C3      11.7465  17.2883   7.9013   C3        1 UIO1   0.0000
    51 H1      11.7465  17.5327   8.8192   H1        1 UIO1   0.0000
    52 O3      10.6988  10.6988  10.6988   O3        1 UIO1   0.0000
    53 O1      11.7465   9.7963   8.2148   O1        1 UIO1   0.0000
    54 C3      11.7465   6.2047   7.9013   C3        1 UIO1   0.0000
    55 H1      11.7465   5.9603   8.8192   H1        1 UIO1   0.0000
    56 O3      12.7942  12.7942  10.6988   O3        1 UIO1   0.0000
    57 O1      11.7465   9.7963  15.2782   O1        1 UIO1   0.0000
    58 C3      11.7465   6.2047  15.5917   C3        1 UIO1   0.0000
    59 H1      11.7465   5.9603  14.6738   H1        1 UIO1   0.0000
    60 O3      10.6988  12.7942  12.7942   O3        1 UIO1   0.0000
    61 O1      11.7465  13.6967  15.2782   O1        1 UIO1   0.0000
    62 C3      11.7465  17.2883  15.5917   C3        1 UIO1   0.0000
    63 H1      11.7465  17.5327  14.6738   H1        1 UIO1   0.0000
    64 O3      12.7942  10.6988  12.7942   O3        1 UIO1   0.0000
    65 O1      13.6967  15.2782  11.7465   O1        1 UIO1   0.0000
    66 O1       9.7963  15.2782  11.7465   O1        1 UIO1   0.0000
    67 O1       9.7963   8.2148  11.7465   O1        1 UIO1   0.0000
    68 C3       6.2047   7.9013  11.7465   C3        1 UIO1   0.0000
    69 H1       5.9603   8.8192  11.7465   H1        1 UIO1   0.0000
    70 O1      13.6967   8.2148  11.7465   O1        1 UIO1   0.0000
    71 O1      15.2782  11.7465   9.7963   O1        1 UIO1   0.0000
    72 C2      15.9537  11.7465   7.5393   C2        1 UIO1   0.0000
    73 C3      15.5917  11.7465   6.2047   C3        1 UIO1   0.0000
    74 H1      14.6738  11.7465   5.9603   H1        1 UIO1   0.0000
    75 C1      14.8956  11.7465   8.5974   C1        1 UIO1   0.0000
    76 O1      15.2782  11.7465  13.6967   O1        1 UIO1   0.0000
    77 C3      15.5917  11.7465  17.2883   C3        1 UIO1   0.0000
    78 H1      14.6738  11.7465  17.5327   H1        1 UIO1   0.0000
    79 O1       8.2148  11.7465  13.6967   O1        1 UIO1   0.0000
    80 C3       7.9013  11.7465  17.2883   C3        1 UIO1   0.0000
    81 H1       8.8192  11.7465  17.5327   H1        1 UIO1   0.0000
    82 O1       8.2148  11.7465   9.7963   O1        1 UIO1   0.0000
    83 C2       7.5393  11.7465   7.5393   C2        1 UIO1   0.0000
    84 C3       7.9013  11.7465   6.2047   C3        1 UIO1   0.0000
    85 H1       8.8192  11.7465   5.9603   H1        1 UIO1   0.0000
    86 C1       8.5974  11.7465   8.5974   C1        1 UIO1   0.0000
    87 O1       9.7963  11.7465   8.2148   O1        1 UIO1   0.0000
    88 C3       6.2047  11.7465   7.9013   C3        1 UIO1   0.0000
    89 H1       5.9603  11.7465   8.8192   H1        1 UIO1   0.0000
    90 O1      13.6967  11.7465   8.2148   O1        1 UIO1   0.0000
    91 C3      17.2883  11.7465   7.9013   C3        1 UIO1   0.0000
    92 H1      17.5327  11.7465   8.8192   H1        1 UIO1   0.0000
    93 C3      11.7465   5.2184   6.9151   C3        1 UIO1   0.0000
    94 C3      11.7465   5.2184  16.5779   C3        1 UIO1   0.0000
    95 C3      11.7465  18.2746  16.5779   C3        1 UIO1   0.0000
    96 C3      11.7465  18.2746   6.9151   C3        1 UIO1   0.0000
    97 C3      11.7465   6.9151  18.2746   C3        1 UIO1   0.0000
    98 C3      11.7465  16.5779  18.2746   C3        1 UIO1   0.0000
    99 C3      11.7465  16.5779   5.2184   C3        1 UIO1   0.0000
   100 C3      11.7465   6.9151   5.2184   C3        1 UIO1   0.0000
   101 C3       6.9151  11.7465   5.2184   C3        1 UIO1   0.0000
   102 C3      16.5779  11.7465   5.2184   C3        1 UIO1   0.0000
   103 C3      16.5779  11.7465  18.2746   C3        1 UIO1   0.0000
   104 C3       6.9151  11.7465  18.2746   C3        1 UIO1   0.0000
   105 C3       5.2184  11.7465  16.5779   C3        1 UIO1   0.0000
   106 C3       5.2184  11.7465   6.9151   C3        1 UIO1   0.0000
   107 C3      18.2746  11.7465   6.9151   C3        1 UIO1   0.0000
   108 C3      18.2746  11.7465  16.5779   C3        1 UIO1   0.0000
   109 C3       5.2184   6.9151  11.7465   C3        1 UIO1   0.0000
   110 C3       6.9151   5.2184  11.7465   C3        1 UIO1   0.0000
   111 Zr      14.2309  11.7465  32.4930   Zr        1 UIO1   0.0000
   112 O1      15.2782  13.6967  32.4930   O1        1 UIO1   0.0000
   113 C2      15.9537  15.9537  32.4930   C2        1 UIO1   0.0000
   114 C3      15.5917  17.2883  32.4930   C3        1 UIO1   0.0000
   115 H1      14.6738  17.5327  32.4930   H1        1 UIO1   0.0000
   116 O3      12.7942  10.6988  31.4453   O3        1 UIO1   0.0000
   117 C1      14.8956  14.8956  32.4930   C1        1 UIO1   0.0000
   118 O1      15.2782   9.7963  32.4930   O1        1 UIO1   0.0000
   119 C2      15.9537   7.5393  32.4930   C2        1 UIO1   0.0000
   120 C3      15.5917   6.2047  32.4930   C3        1 UIO1   0.0000
   121 H1      14.6738   5.9603  32.4930   H1        1 UIO1   0.0000
   122 C1      14.8956   8.5974  32.4930   C1        1 UIO1   0.0000
   123 Zr       9.2621  11.7465  32.4930   Zr        1 UIO1   0.0000
   124 O1       8.2148   9.7963  32.4930   O1        1 UIO1   0.0000
   125 C2       7.5393   7.5393  32.4930   C2        1 UIO1   0.0000
   126 C3       7.9013   6.2047  32.4930   C3        1 UIO1   0.0000
   127 H1       8.8192   5.9603  32.4930   H1        1 UIO1   0.0000
   128 O3      10.6988  12.7942  31.4453   O3        1 UIO1   0.0000
   129 C1       8.5974   8.5974  32.4930   C1        1 UIO1   0.0000
   130 O1       8.2148  13.6967  32.4930   O1        1 UIO1   0.0000
   131 Zr      11.7465  14.2309  32.4930   Zr        1 UIO1   0.0000
   132 O1      11.7465  15.2782  30.5428   O1        1 UIO1   0.0000
   133 C2      11.7465  15.9537  28.2858   C2        1 UIO1   0.0000
   134 C3      11.7465  15.5917  26.9512   C3        1 UIO1   0.0000
   135 H1      11.7465  14.6738  26.7068   H1        1 UIO1   0.0000
   136 C1      11.7465  14.8956  29.3439   C1        1 UIO1   0.0000
   137 Zr      11.7465   9.2621  32.4930   Zr        1 UIO1   0.0000
   138 O1      11.7465   8.2148  30.5428   O1        1 UIO1   0.0000
   139 C2      11.7465   7.5393  28.2858   C2        1 UIO1   0.0000
   140 C3      11.7465   7.9013  26.9512   C3        1 UIO1   0.0000
   141 H1      11.7465   8.8192  26.7068   H1        1 UIO1   0.0000
   142 C1      11.7465   8.5974  29.3439   C1        1 UIO1   0.0000
   143 Zr      11.7465  11.7465  30.0086   Zr        1 UIO1   0.0000
   144 O1      11.7465  13.6967  28.9613   O1        1 UIO1   0.0000
   145 C3      11.7465  17.2883  28.6478   C3        1 UIO1   0.0000
   146 H1      11.7465  17.5327  29.5657   H1        1 UIO1   0.0000
   147 O3      10.6988  10.6988  31.4453   O3        1 UIO1   0.0000
   148 O1      11.7465   9.7963  28.9613   O1        1 UIO1   0.0000
   149 C3      11.7465   6.2047  28.6478   C3        1 UIO1   0.0000
   150 H1      11.7465   5.9603  29.5657   H1        1 UIO1   0.0000
   151 O3      12.7942  12.7942  31.4453   O3        1 UIO1   0.0000
   152 O1      13.6967  15.2782  32.4930   O1        1 UIO1   0.0000
   153 C3      17.2883  15.5917  32.4930   C3        1 UIO1   0.0000
   154 H1      17.5327  14.6738  32.4930   H1        1 UIO1   0.0000
   155 O1       9.7963  15.2782  32.4930   O1        1 UIO1   0.0000
   156 O1       9.7963   8.2148  32.4930   O1        1 UIO1   0.0000
   157 C3       6.2047   7.9013  32.4930   C3        1 UIO1   0.0000
   158 H1       5.9603   8.8192  32.4930   H1        1 UIO1   0.0000
   159 O1      13.6967   8.2148  32.4930   O1        1 UIO1   0.0000
   160 C3      17.2883   7.9013  32.4930   C3        1 UIO1   0.0000
   161 H1      17.5327   8.8192  32.4930   H1        1 UIO1   0.0000
   162 O1      15.2782  11.7465  30.5428   O1        1 UIO1   0.0000
   163 C2      15.9537  11.7465  28.2858   C2        1 UIO1   0.0000
   164 C3      15.5917  11.7465  26.9512   C3        1 UIO1   0.0000
   165 H1      14.6738  11.7465  26.7068   H1        1 UIO1   0.0000
   166 C1      14.8956  11.7465  29.3439   C1        1 UIO1   0.0000
   167 O1       8.2148  11.7465  30.5428   O1        1 UIO1   0.0000
   168 O1       9.7963  11.7465  28.9613   O1        1 UIO1   0.0000
   169 O1      13.6967  11.7465  28.9613   O1        1 UIO1   0.0000
   170 C3      17.2883  11.7465  28.6478   C3        1 UIO1   0.0000
   171 H1      17.5327  11.7465  29.5657   H1        1 UIO1   0.0000
   172 C3      11.7465   5.2184  27.6616   C3        1 UIO1   0.0000
   173 C3      11.7465  18.2746  27.6616   C3        1 UIO1   0.0000
   174 C3      11.7465  16.5779  25.9649   C3        1 UIO1   0.0000
   175 C3      11.7465   6.9151  25.9649   C3        1 UIO1   0.0000
   176 C3      16.5779  11.7465  25.9649   C3        1 UIO1   0.0000
   177 C3      18.2746  11.7465  27.6616   C3        1 UIO1   0.0000
   178 C3       5.2184   6.9151  32.4930   C3        1 UIO1   0.0000
   179 C3      18.2746  16.5779  32.4930   C3        1 UIO1   0.0000
   180 C3      18.2746   6.9151  32.4930   C3        1 UIO1   0.0000
   181 C3       6.9151   5.2184  32.4930   C3        1 UIO1   0.0000
   182 C3      16.5779   5.2184  32.4930   C3        1 UIO1   0.0000
   183 C3      16.5779  18.2746  32.4930   C3        1 UIO1   0.0000
   184 Zr      11.7465  32.4930  14.2309   Zr        1 UIO1   0.0000
   185 O1      13.6967  32.4930  15.2782   O1        1 UIO1   0.0000
   186 C2      15.9537  32.4930  15.9537   C2        1 UIO1   0.0000
   187 C3      17.2883  32.4930  15.5917   C3        1 UIO1   0.0000
   188 H1      17.5327  32.4930  14.6738   H1        1 UIO1   0.0000
   189 O3      10.6988  31.4453  12.7942   O3        1 UIO1   0.0000
   190 C1      14.8956  32.4930  14.8956   C1        1 UIO1   0.0000
   191 O1       9.7963  32.4930  15.2782   O1        1 UIO1   0.0000
   192 C2       7.5393  32.4930  15.9537   C2        1 UIO1   0.0000
   193 C3       6.2047  32.4930  15.5917   C3        1 UIO1   0.0000
   194 H1       5.9603  32.4930  14.6738   H1        1 UIO1   0.0000
   195 C1       8.5974  32.4930  14.8956   C1        1 UIO1   0.0000
   196 Zr      14.2309  32.4930  11.7465   Zr        1 UIO1   0.0000
   197 O3      12.7942  31.4453  10.6988   O3        1 UIO1   0.0000
   198 O1      15.2782  30.5428  11.7465   O1        1 UIO1   0.0000
   199 C2      15.9537  28.2858  11.7465   C2        1 UIO1   0.0000
   200 C3      15.5917  26.9512  11.7465   C3        1 UIO1   0.0000
   201 H1      14.6738  26.7068  11.7465   H1        1 UIO1   0.0000
   202 C1      14.8956  29.3439  11.7465   C1        1 UIO1   0.0000
   203 Zr       9.2621  32.4930  11.7465   Zr        1 UIO1   0.0000
   204 O1       8.2148  30.5428  11.7465   O1        1 UIO1   0.0000
   205 C2       7.5393  28.2858  11.7465   C2        1 UIO1   0.0000
   206 C3       7.9013  26.9512  11.7465   C3        1 UIO1   0.0000
   207 H1       8.8192  26.7068  11.7465   H1        1 UIO1   0.0000
   208 C1       8.5974  29.3439  11.7465   C1        1 UIO1   0.0000
   209 Zr      11.7465  30.0086  11.7465   Zr        1 UIO1   0.0000
   210 O1      11.7465  28.9613   9.7963   O1        1 UIO1   0.0000
   211 O1      11.7465  28.9613  13.6967   O1        1 UIO1   0.0000
   212 C2      11.7465  28.2858  15.9537   C2        1 UIO1   0.0000
   213 C3      11.7465  28.6478  17.2883   C3        1 UIO1   0.0000
   214 H1      11.7465  29.5657  17.5327   H1        1 UIO1   0.0000
   215 C1      11.7465  29.3439  14.8956   C1        1 UIO1   0.0000
   216 Zr      11.7465  32.4930   9.2621   Zr        1 UIO1   0.0000
   217 O3      10.6988  31.4453  10.6988   O3        1 UIO1   0.0000
   218 O1      11.7465  30.5428   8.2148   O1        1 UIO1   0.0000
   219 O1      11.7465  30.5428  15.2782   O1        1 UIO1   0.0000
   220 C3      11.7465  26.9512  15.5917   C3        1 UIO1   0.0000
   221 H1      11.7465  26.7068  14.6738   H1        1 UIO1   0.0000
   222 O3      12.7942  31.4453  12.7942   O3        1 UIO1   0.0000
   223 O1       9.7963  28.9613  11.7465   O1        1 UIO1   0.0000
   224 C3       6.2047  28.6478  11.7465   C3        1 UIO1   0.0000
   225 H1       5.9603  29.5657  11.7465   H1        1 UIO1   0.0000
   226 O1      13.6967  28.9613  11.7465   O1        1 UIO1   0.0000
   227 C3      17.2883  28.6478  11.7465   C3        1 UIO1   0.0000
   228 H1      17.5327  29.5657  11.7465   H1        1 UIO1   0.0000
   229 O1      15.2782  32.4930   9.7963   O1        1 UIO1   0.0000
   230 C2      15.9537  32.4930   7.5393   C2        1 UIO1   0.0000
   231 C3      15.5917  32.4930   6.2047   C3        1 UIO1   0.0000
   232 H1      14.6738  32.4930   5.9603   H1        1 UIO1   0.0000
   233 C1      14.8956  32.4930   8.5974   C1        1 UIO1   0.0000
   234 O1      15.2782  32.4930  13.6967   O1        1 UIO1   0.0000
   235 C3      15.5917  32.4930  17.2883   C3        1 UIO1   0.0000
   236 H1      14.6738  32.4930  17.5327   H1        1 UIO1   0.0000
   237 O1       8.2148  32.4930  13.6967   O1        1 UIO1   0.0000
   238 C3       7.9013  32.4930  17.2883   C3        1 UIO1   0.0000
   239 H1       8.8192  32.4930  17.5327   H1        1 UIO1   0.0000
   240 O1       8.2148  32.4930   9.7963   O1        1 UIO1   0.0000
   241 C2       7.5393  32.4930   7.5393   C2        1 UIO1   0.0000
   242 C3       7.9013  32.4930   6.2047   C3        1 UIO1   0.0000
   243 H1       8.8192  32.4930   5.9603   H1        1 UIO1   0.0000
   244 C1       8.5974  32.4930   8.5974   C1        1 UIO1   0.0000
   245 O1       9.7963  32.4930   8.2148   O1        1 UIO1   0.0000
   246 C3       6.2047  32.4930   7.9013   C3        1 UIO1   0.0000
   247 H1       5.9603  32.4930   8.8192   H1        1 UIO1   0.0000
   248 O1      13.6967  32.4930   8.2148   O1        1 UIO1   0.0000
   249 C3      17.2883  32.4930   7.9013   C3        1 UIO1   0.0000
   250 H1      17.5327  32.4930   8.8192   H1        1 UIO1   0.0000
   251 C3      11.7465  25.9649  16.5779   C3        1 UIO1   0.0000
   252 C3      11.7465  27.6616  18.2746   C3        1 UIO1   0.0000
   253 C3       6.9151  32.4930   5.2184   C3        1 UIO1   0.0000
   254 C3      16.5779  32.4930   5.2184   C3        1 UIO1   0.0000
   255 C3      16.5779  32.4930  18.2746   C3        1 UIO1   0.0000
   256 C3       6.9151  32.4930  18.2746   C3        1 UIO1   0.0000
   257 C3       5.2184  32.4930  16.5779   C3        1 UIO1   0.0000
   258 C3       5.2184  32.4930   6.9151   C3        1 UIO1   0.0000
   259 C3      18.2746  32.4930   6.9151   C3        1 UIO1   0.0000
   260 C3      18.2746  32.4930  16.5779   C3        1 UIO1   0.0000
   261 C3       5.2184  27.6616  11.7465   C3        1 UIO1   0.0000
   262 C3      18.2746  27.6616  11.7465   C3        1 UIO1   0.0000
   263 C3       6.9151  25.9649  11.7465   C3        1 UIO1   0.0000
   264 C3      16.5779  25.9649  11.7465   C3        1 UIO1   0.0000
   265 Zr      14.2309  32.4930  32.4930   Zr        1 UIO1   0.0000
   266 O3      12.7942  31.4453  31.4453   O3        1 UIO1   0.0000
   267 O1      15.2782  30.5428  32.4930   O1        1 UIO1   0.0000
   268 C2      15.9537  28.2858  32.4930   C2        1 UIO1   0.0000
   269 C3      15.5917  26.9512  32.4930   C3        1 UIO1   0.0000
   270 H1      14.6738  26.7068  32.4930   H1        1 UIO1   0.0000
   271 C1      14.8956  29.3439  32.4930   C1        1 UIO1   0.0000
   272 Zr       9.2621  32.4930  32.4930   Zr        1 UIO1   0.0000
   273 O1       8.2148  30.5428  32.4930   O1        1 UIO1   0.0000
   274 C2       7.5393  28.2858  32.4930   C2        1 UIO1   0.0000
   275 C3       7.9013  26.9512  32.4930   C3        1 UIO1   0.0000
   276 H1       8.8192  26.7068  32.4930   H1        1 UIO1   0.0000
   277 C1       8.5974  29.3439  32.4930   C1        1 UIO1   0.0000
   278 Zr      11.7465  30.0086  32.4930   Zr        1 UIO1   0.0000
   279 O1      11.7465  28.9613  30.5428   O1        1 UIO1   0.0000
   280 C2      11.7465  28.2858  28.2858   C2        1 UIO1   0.0000
   281 C3      11.7465  28.6478  26.9512   C3        1 UIO1   0.0000
   282 H1      11.7465  29.5657  26.7068   H1        1 UIO1   0.0000
   283 C1      11.7465  29.3439  29.3439   C1        1 UIO1   0.0000
   284 Zr      11.7465  32.4930  30.0086   Zr        1 UIO1   0.0000
   285 O3      10.6988  31.4453  31.4453   O3        1 UIO1   0.0000
   286 O1      11.7465  30.5428  28.9613   O1        1 UIO1   0.0000
   287 C3      11.7465  26.9512  28.6478   C3        1 UIO1   0.0000
   288 H1      11.7465  26.7068  29.5657   H1        1 UIO1   0.0000
   289 O1       9.7963  28.9613  32.4930   O1        1 UIO1   0.0000
   290 C3       6.2047  28.6478  32.4930   C3        1 UIO1   0.0000
   291 H1       5.9603  29.5657  32.4930   H1        1 UIO1   0.0000
   292 O1      13.6967  28.9613  32.4930   O1        1 UIO1   0.0000
   293 C3      17.2883  28.6478  32.4930   C3        1 UIO1   0.0000
   294 H1      17.5327  29.5657  32.4930   H1        1 UIO1   0.0000
   295 O1      15.2782  32.4930  30.5428   O1        1 UIO1   0.0000
   296 C2      15.9537  32.4930  28.2858   C2        1 UIO1   0.0000
   297 C3      15.5917  32.4930  26.9512   C3        1 UIO1   0.0000
   298 H1      14.6738  32.4930  26.7068   H1        1 UIO1   0.0000
   299 C1      14.8956  32.4930  29.3439   C1        1 UIO1   0.0000
   300 O1       8.2148  32.4930  30.5428   O1        1 UIO1   0.0000
   301 C2       7.5393  32.4930  28.2858   C2        1 UIO1   0.0000
   302 C3       7.9013  32.4930  26.9512   C3        1 UIO1   0.0000
   303 H1       8.8192  32.4930  26.7068   H1        1 UIO1   0.0000
   304 C1       8.5974  32.4930  29.3439   C1        1 UIO1   0.0000
   305 O1       9.7963  32.4930  28.9613   O1        1 UIO1   0.0000
   306 C3       6.2047  32.4930  28.6478   C3        1 UIO1   0.0000
   307 H1       5.9603  32.4930  29.5657   H1        1 UIO1   0.0000
   308 O1      13.6967  32.4930  28.9613   O1        1 UIO1   0.0000
   309 C3      17.2883  32.4930  28.6478   C3        1 UIO1   0.0000
   310 H1      17.5327  32.4930  29.5657   H1        1 UIO1   0.0000
   311 C3      11.7465  25.9649  27.6616   C3        1 UIO1   0.0000
   312 C3      11.7465  27.6616  25.9649   C3        1 UIO1   0.0000
   313 C3       6.9151  32.4930  25.9649   C3        1 UIO1   0.0000
   314 C3      16.5779  32.4930  25.9649   C3        1 UIO1   0.0000
   315 C3       5.2184  32.4930  27.6616   C3        1 UIO1   0.0000
   316 C3      18.2746  32.4930  27.6616   C3        1 UIO1   0.0000
   317 C3       5.2184  27.6616  32.4930   C3        1 UIO1   0.0000
   318 C3      18.2746  27.6616  32.4930   C3        1 UIO1   0.0000
   319 C3       6.9151  25.9649  32.4930   C3        1 UIO1   0.0000
   320 C3      16.5779  25.9649  32.4930   C3        1 UIO1   0.0000
   321 Zr      32.4930  11.7465  14.2309   Zr        1 UIO1   0.0000
   322 O3      31.4453  10.6988  12.7942   O3        1 UIO1   0.0000
   323 O1      30.5428  11.7465  15.2782   O1        1 UIO1   0.0000
   324 C2      28.2858  11.7465  15.9537   C2        1 UIO1   0.0000
   325 C3      26.9512  11.7465  15.5917   C3        1 UIO1   0.0000
   326 H1      26.7068  11.7465  14.6738   H1        1 UIO1   0.0000
   327 C1      29.3439  11.7465  14.8956   C1        1 UIO1   0.0000
   328 Zr      30.0086  11.7465  11.7465   Zr        1 UIO1   0.0000
   329 O1      28.9613   9.7963  11.7465   O1        1 UIO1   0.0000
   330 O3      31.4453  12.7942  10.6988   O3        1 UIO1   0.0000
   331 O1      28.9613  13.6967  11.7465   O1        1 UIO1   0.0000
   332 C2      28.2858  15.9537  11.7465   C2        1 UIO1   0.0000
   333 C3      28.6478  17.2883  11.7465   C3        1 UIO1   0.0000
   334 H1      29.5657  17.5327  11.7465   H1        1 UIO1   0.0000
   335 C1      29.3439  14.8956  11.7465   C1        1 UIO1   0.0000
   336 Zr      32.4930  14.2309  11.7465   Zr        1 UIO1   0.0000
   337 O1      32.4930  15.2782  13.6967   O1        1 UIO1   0.0000
   338 O1      32.4930  15.2782   9.7963   O1        1 UIO1   0.0000
   339 C2      32.4930  15.9537   7.5393   C2        1 UIO1   0.0000
   340 C3      32.4930  15.5917   6.2047   C3        1 UIO1   0.0000
   341 H1      32.4930  14.6738   5.9603   H1        1 UIO1   0.0000
   342 C1      32.4930  14.8956   8.5974   C1        1 UIO1   0.0000
   343 Zr      32.4930   9.2621  11.7465   Zr        1 UIO1   0.0000
   344 O1      32.4930   8.2148   9.7963   O1        1 UIO1   0.0000
   345 C2      32.4930   7.5393   7.5393   C2        1 UIO1   0.0000
   346 C3      32.4930   7.9013   6.2047   C3        1 UIO1   0.0000
   347 H1      32.4930   8.8192   5.9603   H1        1 UIO1   0.0000
   348 C1      32.4930   8.5974   8.5974   C1        1 UIO1   0.0000
   349 O1      32.4930   8.2148  13.6967   O1        1 UIO1   0.0000
   350 Zr      32.4930  11.7465   9.2621   Zr        1 UIO1   0.0000
   351 O1      32.4930  13.6967   8.2148   O1        1 UIO1   0.0000
   352 C3      32.4930  17.2883   7.9013   C3        1 UIO1   0.0000
   353 H1      32.4930  17.5327   8.8192   H1        1 UIO1   0.0000
   354 O3      31.4453  10.6988  10.6988   O3        1 UIO1   0.0000
   355 O1      32.4930   9.7963   8.2148   O1        1 UIO1   0.0000
   356 C3      32.4930   6.2047   7.9013   C3        1 UIO1   0.0000
   357 H1      32.4930   5.9603   8.8192   H1        1 UIO1   0.0000
   358 O1      32.4930   9.7963  15.2782   O1        1 UIO1   0.0000
   359 O3      31.4453  12.7942  12.7942   O3        1 UIO1   0.0000
   360 O1      32.4930  13.6967  15.2782   O1        1 UIO1   0.0000
   361 O1      30.5428  15.2782  11.7465   O1        1 UIO1   0.0000
   362 C3      26.9512  15.5917  11.7465   C3        1 UIO1   0.0000
   363 H1      26.7068  14.6738  11.7465   H1        1 UIO1   0.0000
   364 O1      30.5428   8.2148  11.7465   O1        1 UIO1   0.0000
   365 O1      28.9613  11.7465  13.6967   O1        1 UIO1   0.0000
   366 C3      28.6478  11.7465  17.2883   C3        1 UIO1   0.0000
   367 H1      29.5657  11.7465  17.5327   H1        1 UIO1   0.0000
   368 O1      28.9613  11.7465   9.7963   O1        1 UIO1   0.0000
   369 C2      28.2858  11.7465   7.5393   C2        1 UIO1   0.0000
   370 C3      28.6478  11.7465   6.2047   C3        1 UIO1   0.0000
   371 H1      29.5657  11.7465   5.9603   H1        1 UIO1   0.0000
   372 C1      29.3439  11.7465   8.5974   C1        1 UIO1   0.0000
   373 O1      30.5428  11.7465   8.2148   O1        1 UIO1   0.0000
   374 C3      26.9512  11.7465   7.9013   C3        1 UIO1   0.0000
   375 H1      26.7068  11.7465   8.8192   H1        1 UIO1   0.0000
   376 C3      32.4930   5.2184   6.9151   C3        1 UIO1   0.0000
   377 C3      32.4930  18.2746   6.9151   C3        1 UIO1   0.0000
   378 C3      32.4930  16.5779   5.2184   C3        1 UIO1   0.0000
   379 C3      32.4930   6.9151   5.2184   C3        1 UIO1   0.0000
   380 C3      27.6616  11.7465   5.2184   C3        1 UIO1   0.0000
   381 C3      27.6616  11.7465  18.2746   C3        1 UIO1   0.0000
   382 C3      25.9649  11.7465  16.5779   C3        1 UIO1   0.0000
   383 C3      25.9649  11.7465   6.9151   C3        1 UIO1   0.0000
   384 C3      25.9649  16.5779  11.7465   C3        1 UIO1   0.0000
   385 C3      27.6616  18.2746  11.7465   C3        1 UIO1   0.0000
   386 Zr      30.0086  11.7465  32.4930   Zr        1 UIO1   0.0000
   387 O1      28.9613   9.7963  32.4930   O1        1 UIO1   0.0000
   388 C2      28.2858   7.5393  32.4930   C2        1 UIO1   0.0000
   389 C3      28.6478   6.2047  32.4930   C3        1 UIO1   0.0000
   390 H1      29.5657   5.9603  32.4930   H1        1 UIO1   0.0000
   391 O3      31.4453  12.7942  31.4453   O3        1 UIO1   0.0000
   392 C1      29.3439   8.5974  32.4930   C1        1 UIO1   0.0000
   393 O1      28.9613  13.6967  32.4930   O1        1 UIO1   0.0000
   394 Zr      32.4930  14.2309  32.4930   Zr        1 UIO1   0.0000
   395 O1      32.4930  15.2782  30.5428   O1        1 UIO1   0.0000
   396 C2      32.4930  15.9537  28.2858   C2        1 UIO1   0.0000
   397 C3      32.4930  15.5917  26.9512   C3        1 UIO1   0.0000
   398 H1      32.4930  14.6738  26.7068   H1        1 UIO1   0.0000
   399 C1      32.4930  14.8956  29.3439   C1        1 UIO1   0.0000
   400 Zr      32.4930   9.2621  32.4930   Zr        1 UIO1   0.0000
   401 O1      32.4930   8.2148  30.5428   O1        1 UIO1   0.0000
   402 C2      32.4930   7.5393  28.2858   C2        1 UIO1   0.0000
   403 C3      32.4930   7.9013  26.9512   C3        1 UIO1   0.0000
   404 H1      32.4930   8.8192  26.7068   H1        1 UIO1   0.0000
   405 C1      32.4930   8.5974  29.3439   C1        1 UIO1   0.0000
   406 Zr      32.4930  11.7465  30.0086   Zr        1 UIO1   0.0000
   407 O1      32.4930  13.6967  28.9613   O1        1 UIO1   0.0000
   408 C3      32.4930  17.2883  28.6478   C3        1 UIO1   0.0000
   409 H1      32.4930  17.5327  29.5657   H1        1 UIO1   0.0000
   410 O3      31.4453  10.6988  31.4453   O3        1 UIO1   0.0000
   411 O1      32.4930   9.7963  28.9613   O1        1 UIO1   0.0000
   412 C3      32.4930   6.2047  28.6478   C3        1 UIO1   0.0000
   413 H1      32.4930   5.9603  29.5657   H1        1 UIO1   0.0000
   414 O1      30.5428  15.2782  32.4930   O1        1 UIO1   0.0000
   415 O1      30.5428   8.2148  32.4930   O1        1 UIO1   0.0000
   416 C3      26.9512   7.9013  32.4930   C3        1 UIO1   0.0000
   417 H1      26.7068   8.8192  32.4930   H1        1 UIO1   0.0000
   418 O1      28.9613  11.7465  30.5428   O1        1 UIO1   0.0000
   419 C2      28.2858  11.7465  28.2858   C2        1 UIO1   0.0000
   420 C3      28.6478  11.7465  26.9512   C3        1 UIO1   0.0000
   421 H1      29.5657  11.7465  26.7068   H1        1 UIO1   0.0000
   422 C1      29.3439  11.7465  29.3439   C1        1 UIO1   0.0000
   423 O1      30.5428  11.7465  28.9613   O1        1 UIO1   0.0000
   424 C3      26.9512  11.7465  28.6478   C3        1 UIO1   0.0000
   425 H1      26.7068  11.7465  29.5657   H1        1 UIO1   0.0000
   426 C3      32.4930   5.2184  27.6616   C3        1 UIO1   0.0000
   427 C3      32.4930  18.2746  27.6616   C3        1 UIO1   0.0000
   428 C3      32.4930  16.5779  25.9649   C3        1 UIO1   0.0000
   429 C3      32.4930   6.9151  25.9649   C3        1 UIO1   0.0000
   430 C3      27.6616  11.7465  25.9649   C3        1 UIO1   0.0000
   431 C3      25.9649  11.7465  27.6616   C3        1 UIO1   0.0000
   432 C3      25.9649   6.9151  32.4930   C3        1 UIO1   0.0000
   433 C3      27.6616   5.2184  32.4930   C3        1 UIO1   0.0000
   434 Zr      32.4930  32.4930  14.2309   Zr        1 UIO1   0.0000
   435 O3      31.4453  31.4453  12.7942   O3        1 UIO1   0.0000
   436 O1      30.5428  32.4930  15.2782   O1        1 UIO1   0.0000
   437 C2      28.2858  32.4930  15.9537   C2        1 UIO1   0.0000
   438 C3      26.9512  32.4930  15.5917   C3        1 UIO1   0.0000
   439 H1      26.7068  32.4930  14.6738   H1        1 UIO1   0.0000
   440 C1      29.3439  32.4930  14.8956   C1        1 UIO1   0.0000
   441 Zr      30.0086  32.4930  11.7465   Zr        1 UIO1   0.0000
   442 O1      28.9613  30.5428  11.7465   O1        1 UIO1   0.0000
   443 Zr      32.4930  30.0086  11.7465   Zr        1 UIO1   0.0000
   444 O1      32.4930  28.9613   9.7963   O1        1 UIO1   0.0000
   445 O1      32.4930  28.9613  13.6967   O1        1 UIO1   0.0000
   446 Zr      32.4930  32.4930   9.2621   Zr        1 UIO1   0.0000
   447 O3      31.4453  31.4453  10.6988   O3        1 UIO1   0.0000
   448 O1      32.4930  30.5428   8.2148   O1        1 UIO1   0.0000
   449 O1      32.4930  30.5428  15.2782   O1        1 UIO1   0.0000
   450 O1      30.5428  28.9613  11.7465   O1        1 UIO1   0.0000
   451 O1      28.9613  32.4930  13.6967   O1        1 UIO1   0.0000
   452 C3      28.6478  32.4930  17.2883   C3        1 UIO1   0.0000
   453 H1      29.5657  32.4930  17.5327   H1        1 UIO1   0.0000
   454 O1      28.9613  32.4930   9.7963   O1        1 UIO1   0.0000
   455 C2      28.2858  32.4930   7.5393   C2        1 UIO1   0.0000
   456 C3      28.6478  32.4930   6.2047   C3        1 UIO1   0.0000
   457 H1      29.5657  32.4930   5.9603   H1        1 UIO1   0.0000
   458 C1      29.3439  32.4930   8.5974   C1        1 UIO1   0.0000
   459 O1      30.5428  32.4930   8.2148   O1        1 UIO1   0.0000
   460 C3      26.9512  32.4930   7.9013   C3        1 UIO1   0.0000
   461 H1      26.7068  32.4930   8.8192   H1        1 UIO1   0.0000
   462 C3      27.6616  32.4930   5.2184   C3        1 UIO1   0.0000
   463 C3      27.6616  32.4930  18.2746   C3        1 UIO1   0.0000
   464 C3      25.9649  32.4930  16.5779   C3        1 UIO1   0.0000
   465 C3      25.9649  32.4930   6.9151   C3        1 UIO1   0.0000
   466 Zr      30.0086  32.4930  32.4930   Zr        1 UIO1   0.0000
   467 O1      28.9613  30.5428  32.4930   O1        1 UIO1   0.0000
   468 C2      28.2858  28.2858  32.4930   C2        1 UIO1   0.0000
   469 C3      28.6478  26.9512  32.4930   C3        1 UIO1   0.0000
   470 H1      29.5657  26.7068  32.4930   H1        1 UIO1   0.0000
   471 C1      29.3439  29.3439  32.4930   C1        1 UIO1   0.0000
   472 Zr      32.4930  30.0086  32.4930   Zr        1 UIO1   0.0000
   473 O1      32.4930  28.9613  30.5428   O1        1 UIO1   0.0000
   474 C2      32.4930  28.2858  28.2858   C2        1 UIO1   0.0000
   475 C3      32.4930  28.6478  26.9512   C3        1 UIO1   0.0000
   476 H1      32.4930  29.5657  26.7068   H1        1 UIO1   0.0000
   477 C1      32.4930  29.3439  29.3439   C1        1 UIO1   0.0000
   478 Zr      32.4930  32.4930  30.0086   Zr        1 UIO1   0.0000
   479 O3      31.4453  31.4453  31.4453   O3        1 UIO1   0.0000
   480 O1      32.4930  30.5428  28.9613   O1        1 UIO1   0.0000
   481 C3      32.4930  26.9512  28.6478   C3        1 UIO1   0.0000
   482 H1      32.4930  26.7068  29.5657   H1        1 UIO1   0.0000
   483 O1      30.5428  28.9613  32.4930   O1        1 UIO1   0.0000
   484 C3      26.9512  28.6478  32.4930   C3        1 UIO1   0.0000
   485 H1      26.7068  29.5657  32.4930   H1        1 UIO1   0.0000
   486 O1      28.9613  32.4930  30.5428   O1        1 UIO1   0.0000
   487 C2      28.2858  32.4930  28.2858   C2        1 UIO1   0.0000
   488 C3      28.6478  32.4930  26.9512   C3        1 UIO1   0.0000
   489 H1      29.5657  32.4930  26.7068   H1        1 UIO1   0.0000
   490 C1      29.3439  32.4930  29.3439   C1        1 UIO1   0.0000
   491 O1      30.5428  32.4930  28.9613   O1        1 UIO1   0.0000
   492 C3      26.9512  32.4930  28.6478   C3        1 UIO1   0.0000
   493 H1      26.7068  32.4930  29.5657   H1        1 UIO1   0.0000
   494 C3      32.4930  25.9649  27.6616   C3        1 UIO1   0.0000
   495 C3      32.4930  27.6616  25.9649   C3        1 UIO1   0.0000
   496 C3      27.6616  32.4930  25.9649   C3        1 UIO1   0.0000
   497 C3      25.9649  32.4930  27.6616   C3        1 UIO1   0.0000
   498 C3      25.9649  27.6616  32.4930   C3        1 UIO1   0.0000
   499 C3      27.6616  25.9649  32.4930   C3        1 UIO1   0.0000
   500 Zr      11.7465   1.3733   3.8576   Zr        1 UIO1   0.0000
   501 O1      13.6967   1.3733   4.9049   O1        1 UIO1   0.0000
   502 C2      15.9537   1.3733   5.5804   C2        1 UIO1   0.0000
   503 C3      17.2883   1.3733   5.2184   C3        1 UIO1   0.0000
   504 H1      17.5327   1.3733   4.3006   H1        1 UIO1   0.0000
   505 C1      14.8956   1.3733   4.5224   C1        1 UIO1   0.0000
   506 O1       9.7963   1.3733   4.9049   O1        1 UIO1   0.0000
   507 C2       7.5393   1.3733   5.5804   C2        1 UIO1   0.0000
   508 C3       6.2047   1.3733   5.2184   C3        1 UIO1   0.0000
   509 H1       5.9603   1.3733   4.3006   H1        1 UIO1   0.0000
   510 O3      12.7942   2.4209   2.4209   O3        1 UIO1   0.0000
   511 C1       8.5974   1.3733   4.5224   C1        1 UIO1   0.0000
   512 Zr      14.2309   1.3733   1.3733   Zr        1 UIO1   0.0000
   513 O1      15.2782   3.3234   1.3733   O1        1 UIO1   0.0000
   514 C2      15.9537   5.5804   1.3733   C2        1 UIO1   0.0000
   515 C3      15.5917   6.9151   1.3733   C3        1 UIO1   0.0000
   516 H1      14.6738   7.1594   1.3733   H1        1 UIO1   0.0000
   517 C1      14.8956   4.5224   1.3733   C1        1 UIO1   0.0000
   518 Zr       9.2621   1.3733   1.3733   Zr        1 UIO1   0.0000
   519 O1       8.2148   3.3234   1.3733   O1        1 UIO1   0.0000
   520 C2       7.5393   5.5804   1.3733   C2        1 UIO1   0.0000
   521 C3       7.9013   6.9151   1.3733   C3        1 UIO1   0.0000
   522 H1       8.8192   7.1594   1.3733   H1        1 UIO1   0.0000
   523 C1       8.5974   4.5224   1.3733   C1        1 UIO1   0.0000
   524 Zr      11.7465   3.8576   1.3733   Zr        1 UIO1   0.0000
   525 O1      11.7465   4.9049   3.3234   O1        1 UIO1   0.0000
   526 C2      11.7465   5.5804   5.5804   C2        1 UIO1   0.0000
   527 H1      11.7465   4.3006   7.1594   H1        1 UIO1   0.0000
   528 C1      11.7465   4.5224   4.5224   C1        1 UIO1   0.0000
   529 O3      10.6988   2.4209   2.4209   O3        1 UIO1   0.0000
   530 O1      11.7465   3.3234   4.9049   O1        1 UIO1   0.0000
   531 H1      11.7465   7.1594   4.3006   H1        1 UIO1   0.0000
   532 O1      13.6967   4.9049   1.3733   O1        1 UIO1   0.0000
   533 C3      17.2883   5.2184   1.3733   C3        1 UIO1   0.0000
   534 H1      17.5327   4.3006   1.3733   H1        1 UIO1   0.0000
   535 O1       9.7963   4.9049   1.3733   O1        1 UIO1   0.0000
   536 C3       6.2047   5.2184   1.3733   C3        1 UIO1   0.0000
   537 H1       5.9603   4.3006   1.3733   H1        1 UIO1   0.0000
   538 O1      15.2782   1.3733   3.3234   O1        1 UIO1   0.0000
   539 C3      15.5917   1.3733   6.9151   C3        1 UIO1   0.0000
   540 H1      14.6738   1.3733   7.1594   H1        1 UIO1   0.0000
   541 O1       8.2148   1.3733   3.3234   O1        1 UIO1   0.0000
   542 C3       7.9013   1.3733   6.9151   C3        1 UIO1   0.0000
   543 H1       8.8192   1.3733   7.1594   H1        1 UIO1   0.0000
   544 C3      16.5779   1.3733   7.9013   C3        1 UIO1   0.0000
   545 C3       6.9151   1.3733   7.9013   C3        1 UIO1   0.0000
   546 C3       5.2184   1.3733   6.2047   C3        1 UIO1   0.0000
   547 C3      18.2746   1.3733   6.2047   C3        1 UIO1   0.0000
   548 C3       5.2184   6.2047   1.3733   C3        1 UIO1   0.0000
   549 C3      18.2746   6.2047   1.3733   C3        1 UIO1   0.0000
   550 C3      16.5779   7.9013   1.3733   C3        1 UIO1   0.0000
   551 C3       6.9151   7.9013   1.3733   C3        1 UIO1   0.0000
   552 Zr      11.7465   1.3733  24.6041   Zr        1 UIO1   0.0000
   553 O1      13.6967   1.3733  25.6514   O1        1 UIO1   0.0000
   554 O1       9.7963   1.3733  25.6514   O1        1 UIO1   0.0000
   555 C2       7.5393   1.3733  26.3269   C2        1 UIO1   0.0000
   556 C3       6.2047   1.3733  25.9649   C3        1 UIO1   0.0000
   557 H1       5.9603   1.3733  25.0471   H1        1 UIO1   0.0000
   558 O3      12.7942   2.4209  23.1674   O3        1 UIO1   0.0000
   559 C1       8.5974   1.3733  25.2689   C1        1 UIO1   0.0000
   560 Zr      14.2309   1.3733  22.1198   Zr        1 UIO1   0.0000
   561 O1      15.2782   3.3234  22.1198   O1        1 UIO1   0.0000
   562 C2      15.9537   5.5804  22.1198   C2        1 UIO1   0.0000
   563 C3      15.5917   6.9151  22.1198   C3        1 UIO1   0.0000
   564 H1      14.6738   7.1594  22.1198   H1        1 UIO1   0.0000
   565 C1      14.8956   4.5224  22.1198   C1        1 UIO1   0.0000
   566 Zr       9.2621   1.3733  22.1198   Zr        1 UIO1   0.0000
   567 O3      10.6988   2.4209  21.0721   O3        1 UIO1   0.0000
   568 O1       8.2148   3.3234  22.1198   O1        1 UIO1   0.0000
   569 C2       7.5393   5.5804  22.1198   C2        1 UIO1   0.0000
   570 C3       7.9013   6.9151  22.1198   C3        1 UIO1   0.0000
   571 H1       8.8192   7.1594  22.1198   H1        1 UIO1   0.0000
   572 C1       8.5974   4.5224  22.1198   C1        1 UIO1   0.0000
   573 Zr      11.7465   3.8576  22.1198   Zr        1 UIO1   0.0000
   574 O1      11.7465   4.9049  24.0699   O1        1 UIO1   0.0000
   575 C2      11.7465   5.5804  26.3269   C2        1 UIO1   0.0000
   576 H1      11.7465   4.3006  27.9059   H1        1 UIO1   0.0000
   577 C1      11.7465   4.5224  25.2689   C1        1 UIO1   0.0000
   578 O1      11.7465   4.9049  20.1696   O1        1 UIO1   0.0000
   579 C2      11.7465   5.5804  17.9126   C2        1 UIO1   0.0000
   580 H1      11.7465   4.3006  16.3336   H1        1 UIO1   0.0000
   581 C1      11.7465   4.5224  18.9706   C1        1 UIO1   0.0000
   582 Zr      11.7465   1.3733  19.6354   Zr        1 UIO1   0.0000
   583 O1      11.7465   3.3234  18.5881   O1        1 UIO1   0.0000
   584 H1      11.7465   7.1594  19.1924   H1        1 UIO1   0.0000
   585 O3      12.7942   2.4209  21.0721   O3        1 UIO1   0.0000
   586 O3      10.6988   2.4209  23.1674   O3        1 UIO1   0.0000
   587 O1      11.7465   3.3234  25.6514   O1        1 UIO1   0.0000
   588 H1      11.7465   7.1594  25.0471   H1        1 UIO1   0.0000
   589 O1      13.6967   4.9049  22.1198   O1        1 UIO1   0.0000
   590 C3      17.2883   5.2184  22.1198   C3        1 UIO1   0.0000
   591 H1      17.5327   4.3006  22.1198   H1        1 UIO1   0.0000
   592 O1       9.7963   4.9049  22.1198   O1        1 UIO1   0.0000
   593 C3       6.2047   5.2184  22.1198   C3        1 UIO1   0.0000
   594 H1       5.9603   4.3006  22.1198   H1        1 UIO1   0.0000
   595 O1      15.2782   1.3733  20.1696   O1        1 UIO1   0.0000
   596 C2      15.9537   1.3733  17.9126   C2        1 UIO1   0.0000
   597 C3      15.5917   1.3733  16.5779   C3        1 UIO1   0.0000
   598 H1      14.6738   1.3733  16.3336   H1        1 UIO1   0.0000
   599 C1      14.8956   1.3733  18.9706   C1        1 UIO1   0.0000
   600 O1      15.2782   1.3733  24.0699   O1        1 UIO1   0.0000
   601 O1       8.2148   1.3733  24.0699   O1        1 UIO1   0.0000
   602 C3       7.9013   1.3733  27.6616   C3        1 UIO1   0.0000
   603 H1       8.8192   1.3733  27.9059   H1        1 UIO1   0.0000
   604 O1       8.2148   1.3733  20.1696   O1        1 UIO1   0.0000
   605 C2       7.5393   1.3733  17.9126   C2        1 UIO1   0.0000
   606 C3       7.9013   1.3733  16.5779   C3        1 UIO1   0.0000
   607 H1       8.8192   1.3733  16.3336   H1        1 UIO1   0.0000
   608 C1       8.5974   1.3733  18.9706   C1        1 UIO1   0.0000
   609 O1       9.7963   1.3733  18.5881   O1        1 UIO1   0.0000
   610 C3       6.2047   1.3733  18.2746   C3        1 UIO1   0.0000
   611 H1       5.9603   1.3733  19.1924   H1        1 UIO1   0.0000
   612 O1      13.6967   1.3733  18.5881   O1        1 UIO1   0.0000
   613 C3      17.2883   1.3733  18.2746   C3        1 UIO1   0.0000
   614 H1      17.5327   1.3733  19.1924   H1        1 UIO1   0.0000
   615 C3       6.9151   1.3733  15.5917   C3        1 UIO1   0.0000
   616 C3      16.5779   1.3733  15.5917   C3        1 UIO1   0.0000
   617 C3       6.9151   1.3733  28.6478   C3        1 UIO1   0.0000
   618 C3       5.2184   1.3733  26.9512   C3        1 UIO1   0.0000
   619 C3       5.2184   1.3733  17.2883   C3        1 UIO1   0.0000
   620 C3      18.2746   1.3733  17.2883   C3        1 UIO1   0.0000
   621 C3       5.2184   6.2047  22.1198   C3        1 UIO1   0.0000
   622 C3      18.2746   6.2047  22.1198   C3        1 UIO1   0.0000
   623 C3      16.5779   7.9013  22.1198   C3        1 UIO1   0.0000
   624 C3       6.9151   7.9013  22.1198   C3        1 UIO1   0.0000
   625 Zr      11.7465  22.1198   3.8576   Zr        1 UIO1   0.0000
   626 O1      13.6967  22.1198   4.9049   O1        1 UIO1   0.0000
   627 C2      15.9537  22.1198   5.5804   C2        1 UIO1   0.0000
   628 C3      17.2883  22.1198   5.2184   C3        1 UIO1   0.0000
   629 H1      17.5327  22.1198   4.3006   H1        1 UIO1   0.0000
   630 O3      10.6988  21.0721   2.4209   O3        1 UIO1   0.0000
   631 C1      14.8956  22.1198   4.5224   C1        1 UIO1   0.0000
   632 O1       9.7963  22.1198   4.9049   O1        1 UIO1   0.0000
   633 C2       7.5393  22.1198   5.5804   C2        1 UIO1   0.0000
   634 C3       6.2047  22.1198   5.2184   C3        1 UIO1   0.0000
   635 H1       5.9603  22.1198   4.3006   H1        1 UIO1   0.0000
   636 O3      12.7942  23.1674   2.4209   O3        1 UIO1   0.0000
   637 C1       8.5974  22.1198   4.5224   C1        1 UIO1   0.0000
   638 Zr      14.2309  22.1198   1.3733   Zr        1 UIO1   0.0000
   639 O1      15.2782  24.0699   1.3733   O1        1 UIO1   0.0000
   640 C2      15.9537  26.3269   1.3733   C2        1 UIO1   0.0000
   641 C3      15.5917  27.6616   1.3733   C3        1 UIO1   0.0000
   642 H1      14.6738  27.9059   1.3733   H1        1 UIO1   0.0000
   643 C1      14.8956  25.2689   1.3733   C1        1 UIO1   0.0000
   644 O1      15.2782  20.1696   1.3733   O1        1 UIO1   0.0000
   645 C2      15.9537  17.9126   1.3733   C2        1 UIO1   0.0000
   646 C3      15.5917  16.5779   1.3733   C3        1 UIO1   0.0000
   647 H1      14.6738  16.3336   1.3733   H1        1 UIO1   0.0000
   648 C1      14.8956  18.9706   1.3733   C1        1 UIO1   0.0000
   649 Zr       9.2621  22.1198   1.3733   Zr        1 UIO1   0.0000
   650 O1       8.2148  20.1696   1.3733   O1        1 UIO1   0.0000
   651 C2       7.5393  17.9126   1.3733   C2        1 UIO1   0.0000
   652 C3       7.9013  16.5779   1.3733   C3        1 UIO1   0.0000
   653 H1       8.8192  16.3336   1.3733   H1        1 UIO1   0.0000
   654 C1       8.5974  18.9706   1.3733   C1        1 UIO1   0.0000
   655 O1       8.2148  24.0699   1.3733   O1        1 UIO1   0.0000
   656 C2       7.5393  26.3269   1.3733   C2        1 UIO1   0.0000
   657 C3       7.9013  27.6616   1.3733   C3        1 UIO1   0.0000
   658 H1       8.8192  27.9059   1.3733   H1        1 UIO1   0.0000
   659 C1       8.5974  25.2689   1.3733   C1        1 UIO1   0.0000
   660 Zr      11.7465  24.6041   1.3733   Zr        1 UIO1   0.0000
   661 O1      11.7465  25.6514   3.3234   O1        1 UIO1   0.0000
   662 Zr      11.7465  19.6354   1.3733   Zr        1 UIO1   0.0000
   663 O1      11.7465  18.5881   3.3234   O1        1 UIO1   0.0000
   664 C2      11.7465  17.9126   5.5804   C2        1 UIO1   0.0000
   665 H1      11.7465  19.1924   7.1594   H1        1 UIO1   0.0000
   666 C1      11.7465  18.9706   4.5224   C1        1 UIO1   0.0000
   667 O1      11.7465  20.1696   4.9049   O1        1 UIO1   0.0000
   668 H1      11.7465  16.3336   4.3006   H1        1 UIO1   0.0000
   669 O3      10.6988  23.1674   2.4209   O3        1 UIO1   0.0000
   670 O1      11.7465  24.0699   4.9049   O1        1 UIO1   0.0000
   671 O3      12.7942  21.0721   2.4209   O3        1 UIO1   0.0000
   672 O1      13.6967  25.6514   1.3733   O1        1 UIO1   0.0000
   673 C3      17.2883  25.9649   1.3733   C3        1 UIO1   0.0000
   674 H1      17.5327  25.0471   1.3733   H1        1 UIO1   0.0000
   675 O1       9.7963  25.6514   1.3733   O1        1 UIO1   0.0000
   676 C3       6.2047  25.9649   1.3733   C3        1 UIO1   0.0000
   677 H1       5.9603  25.0471   1.3733   H1        1 UIO1   0.0000
   678 O1       9.7963  18.5881   1.3733   O1        1 UIO1   0.0000
   679 C3       6.2047  18.2746   1.3733   C3        1 UIO1   0.0000
   680 H1       5.9603  19.1924   1.3733   H1        1 UIO1   0.0000
   681 O1      13.6967  18.5881   1.3733   O1        1 UIO1   0.0000
   682 C3      17.2883  18.2746   1.3733   C3        1 UIO1   0.0000
   683 H1      17.5327  19.1924   1.3733   H1        1 UIO1   0.0000
   684 O1      15.2782  22.1198   3.3234   O1        1 UIO1   0.0000
   685 C3      15.5917  22.1198   6.9151   C3        1 UIO1   0.0000
   686 H1      14.6738  22.1198   7.1594   H1        1 UIO1   0.0000
   687 O1       8.2148  22.1198   3.3234   O1        1 UIO1   0.0000
   688 C3       7.9013  22.1198   6.9151   C3        1 UIO1   0.0000
   689 H1       8.8192  22.1198   7.1594   H1        1 UIO1   0.0000
   690 C3      16.5779  22.1198   7.9013   C3        1 UIO1   0.0000
   691 C3       6.9151  22.1198   7.9013   C3        1 UIO1   0.0000
   692 C3       5.2184  22.1198   6.2047   C3        1 UIO1   0.0000
   693 C3      18.2746  22.1198   6.2047   C3        1 UIO1   0.0000
   694 C3       5.2184  17.2883   1.3733   C3        1 UIO1   0.0000
   695 C3       5.2184  26.9512   1.3733   C3        1 UIO1   0.0000
   696 C3      18.2746  26.9512   1.3733   C3        1 UIO1   0.0000
   697 C3      18.2746  17.2883   1.3733   C3        1 UIO1   0.0000
   698 C3       6.9151  15.5917   1.3733   C3        1 UIO1   0.0000
   699 C3      16.5779  15.5917   1.3733   C3        1 UIO1   0.0000
   700 C3      16.5779  28.6478   1.3733   C3        1 UIO1   0.0000
   701 C3       6.9151  28.6478   1.3733   C3        1 UIO1   0.0000
   702 Zr      11.7465  22.1198  24.6041   Zr        1 UIO1   0.0000
   703 O1      13.6967  22.1198  25.6514   O1        1 UIO1   0.0000
   704 C2      15.9537  22.1198  26.3269   C2        1 UIO1   0.0000
   705 C3      17.2883  22.1198  25.9649   C3        1 UIO1   0.0000
   706 H1      17.5327  22.1198  25.0471   H1        1 UIO1   0.0000
   707 O3      10.6988  21.0721  23.1674   O3        1 UIO1   0.0000
   708 C1      14.8956  22.1198  25.2689   C1        1 UIO1   0.0000
   709 O1       9.7963  22.1198  25.6514   O1        1 UIO1   0.0000
   710 O3      12.7942  23.1674  23.1674   O3        1 UIO1   0.0000
   711 Zr      14.2309  22.1198  22.1198   Zr        1 UIO1   0.0000
   712 O1      15.2782  24.0699  22.1198   O1        1 UIO1   0.0000
   713 C2      15.9537  26.3269  22.1198   C2        1 UIO1   0.0000
   714 C3      15.5917  27.6616  22.1198   C3        1 UIO1   0.0000
   715 H1      14.6738  27.9059  22.1198   H1        1 UIO1   0.0000
   716 O3      12.7942  21.0721  21.0721   O3        1 UIO1   0.0000
   717 C1      14.8956  25.2689  22.1198   C1        1 UIO1   0.0000
   718 O1      15.2782  20.1696  22.1198   O1        1 UIO1   0.0000
   719 C2      15.9537  17.9126  22.1198   C2        1 UIO1   0.0000
   720 C3      15.5917  16.5779  22.1198   C3        1 UIO1   0.0000
   721 H1      14.6738  16.3336  22.1198   H1        1 UIO1   0.0000
   722 C1      14.8956  18.9706  22.1198   C1        1 UIO1   0.0000
   723 Zr       9.2621  22.1198  22.1198   Zr        1 UIO1   0.0000
   724 O1       8.2148  20.1696  22.1198   O1        1 UIO1   0.0000
   725 C2       7.5393  17.9126  22.1198   C2        1 UIO1   0.0000
   726 C3       7.9013  16.5779  22.1198   C3        1 UIO1   0.0000
   727 H1       8.8192  16.3336  22.1198   H1        1 UIO1   0.0000
   728 O3      10.6988  23.1674  21.0721   O3        1 UIO1   0.0000
   729 C1       8.5974  18.9706  22.1198   C1        1 UIO1   0.0000
   730 O1       8.2148  24.0699  22.1198   O1        1 UIO1   0.0000
   731 Zr      11.7465  24.6041  22.1198   Zr        1 UIO1   0.0000
   732 O1      11.7465  25.6514  24.0699   O1        1 UIO1   0.0000
   733 C2      11.7465  26.3269  26.3269   C2        1 UIO1   0.0000
   734 H1      11.7465  25.0471  27.9059   H1        1 UIO1   0.0000
   735 C1      11.7465  25.2689  25.2689   C1        1 UIO1   0.0000
   736 O1      11.7465  25.6514  20.1696   O1        1 UIO1   0.0000
   737 C2      11.7465  26.3269  17.9126   C2        1 UIO1   0.0000
   738 H1      11.7465  25.0471  16.3336   H1        1 UIO1   0.0000
   739 C1      11.7465  25.2689  18.9706   C1        1 UIO1   0.0000
   740 Zr      11.7465  19.6354  22.1198   Zr        1 UIO1   0.0000
   741 O1      11.7465  18.5881  20.1696   O1        1 UIO1   0.0000
   742 C2      11.7465  17.9126  17.9126   C2        1 UIO1   0.0000
   743 H1      11.7465  19.1924  16.3336   H1        1 UIO1   0.0000
   744 C1      11.7465  18.9706  18.9706   C1        1 UIO1   0.0000
   745 O1      11.7465  18.5881  24.0699   O1        1 UIO1   0.0000
   746 C2      11.7465  17.9126  26.3269   C2        1 UIO1   0.0000
   747 H1      11.7465  19.1924  27.9059   H1        1 UIO1   0.0000
   748 C1      11.7465  18.9706  25.2689   C1        1 UIO1   0.0000
   749 Zr      11.7465  22.1198  19.6354   Zr        1 UIO1   0.0000
   750 O1      11.7465  24.0699  18.5881   O1        1 UIO1   0.0000
   751 H1      11.7465  27.9059  19.1924   H1        1 UIO1   0.0000
   752 O3      10.6988  21.0721  21.0721   O3        1 UIO1   0.0000
   753 O1      11.7465  20.1696  18.5881   O1        1 UIO1   0.0000
   754 H1      11.7465  16.3336  19.1924   H1        1 UIO1   0.0000
   755 O3      12.7942  23.1674  21.0721   O3        1 UIO1   0.0000
   756 O1      11.7465  20.1696  25.6514   O1        1 UIO1   0.0000
   757 H1      11.7465  16.3336  25.0471   H1        1 UIO1   0.0000
   758 O3      10.6988  23.1674  23.1674   O3        1 UIO1   0.0000
   759 O1      11.7465  24.0699  25.6514   O1        1 UIO1   0.0000
   760 H1      11.7465  27.9059  25.0471   H1        1 UIO1   0.0000
   761 O3      12.7942  21.0721  23.1674   O3        1 UIO1   0.0000
   762 O1      13.6967  25.6514  22.1198   O1        1 UIO1   0.0000
   763 C3      17.2883  25.9649  22.1198   C3        1 UIO1   0.0000
   764 H1      17.5327  25.0471  22.1198   H1        1 UIO1   0.0000
   765 O1       9.7963  25.6514  22.1198   O1        1 UIO1   0.0000
   766 O1       9.7963  18.5881  22.1198   O1        1 UIO1   0.0000
   767 C3       6.2047  18.2746  22.1198   C3        1 UIO1   0.0000
   768 H1       5.9603  19.1924  22.1198   H1        1 UIO1   0.0000
   769 O1      13.6967  18.5881  22.1198   O1        1 UIO1   0.0000
   770 C3      17.2883  18.2746  22.1198   C3        1 UIO1   0.0000
   771 H1      17.5327  19.1924  22.1198   H1        1 UIO1   0.0000
   772 O1      15.2782  22.1198  20.1696   O1        1 UIO1   0.0000
   773 C2      15.9537  22.1198  17.9126   C2        1 UIO1   0.0000
   774 C3      15.5917  22.1198  16.5779   C3        1 UIO1   0.0000
   775 H1      14.6738  22.1198  16.3336   H1        1 UIO1   0.0000
   776 C1      14.8956  22.1198  18.9706   C1        1 UIO1   0.0000
   777 O1      15.2782  22.1198  24.0699   O1        1 UIO1   0.0000
   778 C3      15.5917  22.1198  27.6616   C3        1 UIO1   0.0000
   779 H1      14.6738  22.1198  27.9059   H1        1 UIO1   0.0000
   780 O1       8.2148  22.1198  24.0699   O1        1 UIO1   0.0000
   781 O1       8.2148  22.1198  20.1696   O1        1 UIO1   0.0000
   782 O1       9.7963  22.1198  18.5881   O1        1 UIO1   0.0000
   783 O1      13.6967  22.1198  18.5881   O1        1 UIO1   0.0000
   784 C3      17.2883  22.1198  18.2746   C3        1 UIO1   0.0000
   785 H1      17.5327  22.1198  19.1924   H1        1 UIO1   0.0000
   786 C3      16.5779  22.1198  15.5917   C3        1 UIO1   0.0000
   787 C3      16.5779  22.1198  28.6478   C3        1 UIO1   0.0000
   788 C3      18.2746  22.1198  17.2883   C3        1 UIO1   0.0000
   789 C3      18.2746  22.1198  26.9512   C3        1 UIO1   0.0000
   790 C3       5.2184  17.2883  22.1198   C3        1 UIO1   0.0000
   791 C3      18.2746  26.9512  22.1198   C3        1 UIO1   0.0000
   792 C3      18.2746  17.2883  22.1198   C3        1 UIO1   0.0000
   793 C3       6.9151  15.5917  22.1198   C3        1 UIO1   0.0000
   794 C3      16.5779  15.5917  22.1198   C3        1 UIO1   0.0000
   795 C3      16.5779  28.6478  22.1198   C3        1 UIO1   0.0000
   796 Zr      32.4930   1.3733   3.8576   Zr        1 UIO1   0.0000
   797 O1      30.5428   1.3733   4.9049   O1        1 UIO1   0.0000
   798 C2      28.2858   1.3733   5.5804   C2        1 UIO1   0.0000
   799 C3      26.9512   1.3733   5.2184   C3        1 UIO1   0.0000
   800 H1      26.7068   1.3733   4.3006   H1        1 UIO1   0.0000
   801 C1      29.3439   1.3733   4.5224   C1        1 UIO1   0.0000
   802 Zr      30.0086   1.3733   1.3733   Zr        1 UIO1   0.0000
   803 O1      28.9613   3.3234   1.3733   O1        1 UIO1   0.0000
   804 C2      28.2858   5.5804   1.3733   C2        1 UIO1   0.0000
   805 C3      28.6478   6.9151   1.3733   C3        1 UIO1   0.0000
   806 H1      29.5657   7.1594   1.3733   H1        1 UIO1   0.0000
   807 C1      29.3439   4.5224   1.3733   C1        1 UIO1   0.0000
   808 Zr      32.4930   3.8576   1.3733   Zr        1 UIO1   0.0000
   809 O1      32.4930   4.9049   3.3234   O1        1 UIO1   0.0000
   810 C2      32.4930   5.5804   5.5804   C2        1 UIO1   0.0000
   811 H1      32.4930   4.3006   7.1594   H1        1 UIO1   0.0000
   812 C1      32.4930   4.5224   4.5224   C1        1 UIO1   0.0000
   813 O3      31.4453   2.4209   2.4209   O3        1 UIO1   0.0000
   814 O1      32.4930   3.3234   4.9049   O1        1 UIO1   0.0000
   815 H1      32.4930   7.1594   4.3006   H1        1 UIO1   0.0000
   816 O1      30.5428   4.9049   1.3733   O1        1 UIO1   0.0000
   817 C3      26.9512   5.2184   1.3733   C3        1 UIO1   0.0000
   818 H1      26.7068   4.3006   1.3733   H1        1 UIO1   0.0000
   819 O1      28.9613   1.3733   3.3234   O1        1 UIO1   0.0000
   820 C3      28.6478   1.3733   6.9151   C3        1 UIO1   0.0000
   821 H1      29.5657   1.3733   7.1594   H1        1 UIO1   0.0000
   822 C3      27.6616   1.3733   7.9013   C3        1 UIO1   0.0000
   823 C3      25.9649   1.3733   6.2047   C3        1 UIO1   0.0000
   824 C3      25.9649   6.2047   1.3733   C3        1 UIO1   0.0000
   825 C3      27.6616   7.9013   1.3733   C3        1 UIO1   0.0000
   826 Zr      32.4930   1.3733  24.6041   Zr        1 UIO1   0.0000
   827 O1      30.5428   1.3733  25.6514   O1        1 UIO1   0.0000
   828 Zr      30.0086   1.3733  22.1198   Zr        1 UIO1   0.0000
   829 O3      31.4453   2.4209  21.0721   O3        1 UIO1   0.0000
   830 O1      28.9613   3.3234  22.1198   O1        1 UIO1   0.0000
   831 C2      28.2858   5.5804  22.1198   C2        1 UIO1   0.0000
   832 C3      28.6478   6.9151  22.1198   C3        1 UIO1   0.0000
   833 H1      29.5657   7.1594  22.1198   H1        1 UIO1   0.0000
   834 C1      29.3439   4.5224  22.1198   C1        1 UIO1   0.0000
   835 Zr      32.4930   3.8576  22.1198   Zr        1 UIO1   0.0000
   836 O1      32.4930   4.9049  24.0699   O1        1 UIO1   0.0000
   837 C2      32.4930   5.5804  26.3269   C2        1 UIO1   0.0000
   838 H1      32.4930   4.3006  27.9059   H1        1 UIO1   0.0000
   839 C1      32.4930   4.5224  25.2689   C1        1 UIO1   0.0000
   840 O1      32.4930   4.9049  20.1696   O1        1 UIO1   0.0000
   841 Zr      32.4930   1.3733  19.6354   Zr        1 UIO1   0.0000
   842 O1      32.4930   3.3234  18.5881   O1        1 UIO1   0.0000
   843 O3      31.4453   2.4209  23.1674   O3        1 UIO1   0.0000
   844 O1      32.4930   3.3234  25.6514   O1        1 UIO1   0.0000
   845 H1      32.4930   7.1594  25.0471   H1        1 UIO1   0.0000
   846 O1      30.5428   4.9049  22.1198   O1        1 UIO1   0.0000
   847 C3      26.9512   5.2184  22.1198   C3        1 UIO1   0.0000
   848 H1      26.7068   4.3006  22.1198   H1        1 UIO1   0.0000
   849 O1      28.9613   1.3733  24.0699   O1        1 UIO1   0.0000
   850 O1      28.9613   1.3733  20.1696   O1        1 UIO1   0.0000
   851 C2      28.2858   1.3733  17.9126   C2        1 UIO1   0.0000
   852 C3      28.6478   1.3733  16.5779   C3        1 UIO1   0.0000
   853 H1      29.5657   1.3733  16.3336   H1        1 UIO1   0.0000
   854 C1      29.3439   1.3733  18.9706   C1        1 UIO1   0.0000
   855 O1      30.5428   1.3733  18.5881   O1        1 UIO1   0.0000
   856 C3      26.9512   1.3733  18.2746   C3        1 UIO1   0.0000
   857 H1      26.7068   1.3733  19.1924   H1        1 UIO1   0.0000
   858 C3      27.6616   1.3733  15.5917   C3        1 UIO1   0.0000
   859 C3      25.9649   1.3733  17.2883   C3        1 UIO1   0.0000
   860 C3      25.9649   6.2047  22.1198   C3        1 UIO1   0.0000
   861 C3      27.6616   7.9013  22.1198   C3        1 UIO1   0.0000
   862 Zr      32.4930  22.1198   3.8576   Zr        1 UIO1   0.0000
   863 O3      31.4453  21.0721   2.4209   O3        1 UIO1   0.0000
   864 O1      30.5428  22.1198   4.9049   O1        1 UIO1   0.0000
   865 Zr      30.0086  22.1198   1.3733   Zr        1 UIO1   0.0000
   866 O1      28.9613  20.1696   1.3733   O1        1 UIO1   0.0000
   867 C2      28.2858  17.9126   1.3733   C2        1 UIO1   0.0000
   868 C3      28.6478  16.5779   1.3733   C3        1 UIO1   0.0000
   869 H1      29.5657  16.3336   1.3733   H1        1 UIO1   0.0000
   870 C1      29.3439  18.9706   1.3733   C1        1 UIO1   0.0000
   871 O1      28.9613  24.0699   1.3733   O1        1 UIO1   0.0000
   872 C2      28.2858  26.3269   1.3733   C2        1 UIO1   0.0000
   873 C3      28.6478  27.6616   1.3733   C3        1 UIO1   0.0000
   874 H1      29.5657  27.9059   1.3733   H1        1 UIO1   0.0000
   875 C1      29.3439  25.2689   1.3733   C1        1 UIO1   0.0000
   876 Zr      32.4930  24.6041   1.3733   Zr        1 UIO1   0.0000
   877 O1      32.4930  25.6514   3.3234   O1        1 UIO1   0.0000
   878 Zr      32.4930  19.6354   1.3733   Zr        1 UIO1   0.0000
   879 O1      32.4930  18.5881   3.3234   O1        1 UIO1   0.0000
   880 C2      32.4930  17.9126   5.5804   C2        1 UIO1   0.0000
   881 H1      32.4930  19.1924   7.1594   H1        1 UIO1   0.0000
   882 C1      32.4930  18.9706   4.5224   C1        1 UIO1   0.0000
   883 O1      32.4930  20.1696   4.9049   O1        1 UIO1   0.0000
   884 H1      32.4930  16.3336   4.3006   H1        1 UIO1   0.0000
   885 O3      31.4453  23.1674   2.4209   O3        1 UIO1   0.0000
   886 O1      32.4930  24.0699   4.9049   O1        1 UIO1   0.0000
   887 O1      30.5428  25.6514   1.3733   O1        1 UIO1   0.0000
   888 C3      26.9512  25.9649   1.3733   C3        1 UIO1   0.0000
   889 H1      26.7068  25.0471   1.3733   H1        1 UIO1   0.0000
   890 O1      30.5428  18.5881   1.3733   O1        1 UIO1   0.0000
   891 C3      26.9512  18.2746   1.3733   C3        1 UIO1   0.0000
   892 H1      26.7068  19.1924   1.3733   H1        1 UIO1   0.0000
   893 O1      28.9613  22.1198   3.3234   O1        1 UIO1   0.0000
   894 C3      25.9649  17.2883   1.3733   C3        1 UIO1   0.0000
   895 C3      25.9649  26.9512   1.3733   C3        1 UIO1   0.0000
   896 C3      27.6616  15.5917   1.3733   C3        1 UIO1   0.0000
   897 C3      27.6616  28.6478   1.3733   C3        1 UIO1   0.0000
   898 Zr      32.4930  22.1198  24.6041   Zr        1 UIO1   0.0000
   899 O3      31.4453  21.0721  23.1674   O3        1 UIO1   0.0000
   900 O1      30.5428  22.1198  25.6514   O1        1 UIO1   0.0000
   901 C2      28.2858  22.1198  26.3269   C2        1 UIO1   0.0000
   902 C3      26.9512  22.1198  25.9649   C3        1 UIO1   0.0000
   903 H1      26.7068  22.1198  25.0471   H1        1 UIO1   0.0000
   904 C1      29.3439  22.1198  25.2689   C1        1 UIO1   0.0000
   905 Zr      30.0086  22.1198  22.1198   Zr        1 UIO1   0.0000
   906 O1      28.9613  20.1696  22.1198   O1        1 UIO1   0.0000
   907 C2      28.2858  17.9126  22.1198   C2        1 UIO1   0.0000
   908 C3      28.6478  16.5779  22.1198   C3        1 UIO1   0.0000
   909 H1      29.5657  16.3336  22.1198   H1        1 UIO1   0.0000
   910 O3      31.4453  23.1674  21.0721   O3        1 UIO1   0.0000
   911 C1      29.3439  18.9706  22.1198   C1        1 UIO1   0.0000
   912 O1      28.9613  24.0699  22.1198   O1        1 UIO1   0.0000
   913 C2      28.2858  26.3269  22.1198   C2        1 UIO1   0.0000
   914 C3      28.6478  27.6616  22.1198   C3        1 UIO1   0.0000
   915 H1      29.5657  27.9059  22.1198   H1        1 UIO1   0.0000
   916 C1      29.3439  25.2689  22.1198   C1        1 UIO1   0.0000
   917 Zr      32.4930  24.6041  22.1198   Zr        1 UIO1   0.0000
   918 O1      32.4930  25.6514  24.0699   O1        1 UIO1   0.0000
   919 C2      32.4930  26.3269  26.3269   C2        1 UIO1   0.0000
   920 H1      32.4930  25.0471  27.9059   H1        1 UIO1   0.0000
   921 C1      32.4930  25.2689  25.2689   C1        1 UIO1   0.0000
   922 O1      32.4930  25.6514  20.1696   O1        1 UIO1   0.0000
   923 Zr      32.4930  19.6354  22.1198   Zr        1 UIO1   0.0000
   924 O1      32.4930  18.5881  20.1696   O1        1 UIO1   0.0000
   925 O1      32.4930  18.5881  24.0699   O1        1 UIO1   0.0000
   926 C2      32.4930  17.9126  26.3269   C2        1 UIO1   0.0000
   927 H1      32.4930  19.1924  27.9059   H1        1 UIO1   0.0000
   928 C1      32.4930  18.9706  25.2689   C1        1 UIO1   0.0000
   929 Zr      32.4930  22.1198  19.6354   Zr        1 UIO1   0.0000
   930 O1      32.4930  24.0699  18.5881   O1        1 UIO1   0.0000
   931 O3      31.4453  21.0721  21.0721   O3        1 UIO1   0.0000
   932 O1      32.4930  20.1696  18.5881   O1        1 UIO1   0.0000
   933 O1      32.4930  20.1696  25.6514   O1        1 UIO1   0.0000
   934 H1      32.4930  16.3336  25.0471   H1        1 UIO1   0.0000
   935 O3      31.4453  23.1674  23.1674   O3        1 UIO1   0.0000
   936 O1      32.4930  24.0699  25.6514   O1        1 UIO1   0.0000
   937 H1      32.4930  27.9059  25.0471   H1        1 UIO1   0.0000
   938 O1      30.5428  25.6514  22.1198   O1        1 UIO1   0.0000
   939 C3      26.9512  25.9649  22.1198   C3        1 UIO1   0.0000
   940 H1      26.7068  25.0471  22.1198   H1        1 UIO1   0.0000
   941 O1      30.5428  18.5881  22.1198   O1        1 UIO1   0.0000
   942 C3      26.9512  18.2746  22.1198   C3        1 UIO1   0.0000
   943 H1      26.7068  19.1924  22.1198   H1        1 UIO1   0.0000
   944 O1      28.9613  22.1198  24.0699   O1        1 UIO1   0.0000
   945 C3      28.6478  22.1198  27.6616   C3        1 UIO1   0.0000
   946 H1      29.5657  22.1198  27.9059   H1        1 UIO1   0.0000
   947 O1      28.9613  22.1198  20.1696   O1        1 UIO1   0.0000
   948 C2      28.2858  22.1198  17.9126   C2        1 UIO1   0.0000
   949 C3      28.6478  22.1198  16.5779   C3        1 UIO1   0.0000
   950 H1      29.5657  22.1198  16.3336   H1        1 UIO1   0.0000
   951 C1      29.3439  22.1198  18.9706   C1        1 UIO1   0.0000
   952 O1      30.5428  22.1198  18.5881   O1        1 UIO1   0.0000
   953 C3      26.9512  22.1198  18.2746   C3        1 UIO1   0.0000
   954 H1      26.7068  22.1198  19.1924   H1        1 UIO1   0.0000
   955 C3      27.6616  22.1198  15.5917   C3        1 UIO1   0.0000
   956 C3      27.6616  22.1198  28.6478   C3        1 UIO1   0.0000
   957 C3      25.9649  22.1198  26.9512   C3        1 UIO1   0.0000
   958 C3      25.9649  22.1198  17.2883   C3        1 UIO1   0.0000
   959 C3      25.9649  17.2883  22.1198   C3        1 UIO1   0.0000
   960 C3      25.9649  26.9512  22.1198   C3        1 UIO1   0.0000
   961 C3      27.6616  15.5917  22.1198   C3        1 UIO1   0.0000
   962 C3      27.6616  28.6478  22.1198   C3        1 UIO1   0.0000
   963 Zr       1.3733  11.7465   3.8576   Zr        1 UIO1   0.0000
   964 O1       3.3234  11.7465   4.9049   O1        1 UIO1   0.0000
   965 C2       5.5804  11.7465   5.5804   C2        1 UIO1   0.0000
   966 H1       7.1594  11.7465   4.3006   H1        1 UIO1   0.0000
   967 C1       4.5224  11.7465   4.5224   C1        1 UIO1   0.0000
   968 O3       2.4209  12.7942   2.4209   O3        1 UIO1   0.0000
   969 Zr       3.8576  11.7465   1.3733   Zr        1 UIO1   0.0000
   970 O1       4.9049  13.6967   1.3733   O1        1 UIO1   0.0000
   971 C2       5.5804  15.9537   1.3733   C2        1 UIO1   0.0000
   972 H1       4.3006  17.5327   1.3733   H1        1 UIO1   0.0000
   973 C1       4.5224  14.8956   1.3733   C1        1 UIO1   0.0000
   974 O1       4.9049   9.7963   1.3733   O1        1 UIO1   0.0000
   975 C2       5.5804   7.5393   1.3733   C2        1 UIO1   0.0000
   976 H1       4.3006   5.9603   1.3733   H1        1 UIO1   0.0000
   977 C1       4.5224   8.5974   1.3733   C1        1 UIO1   0.0000
   978 Zr       1.3733  14.2309   1.3733   Zr        1 UIO1   0.0000
   979 O1       1.3733  15.2782   3.3234   O1        1 UIO1   0.0000
   980 C2       1.3733  15.9537   5.5804   C2        1 UIO1   0.0000
   981 C3       1.3733  15.5917   6.9151   C3        1 UIO1   0.0000
   982 H1       1.3733  14.6738   7.1594   H1        1 UIO1   0.0000
   983 C1       1.3733  14.8956   4.5224   C1        1 UIO1   0.0000
   984 Zr       1.3733   9.2621   1.3733   Zr        1 UIO1   0.0000
   985 O1       1.3733   8.2148   3.3234   O1        1 UIO1   0.0000
   986 C2       1.3733   7.5393   5.5804   C2        1 UIO1   0.0000
   987 C3       1.3733   7.9013   6.9151   C3        1 UIO1   0.0000
   988 H1       1.3733   8.8192   7.1594   H1        1 UIO1   0.0000
   989 C1       1.3733   8.5974   4.5224   C1        1 UIO1   0.0000
   990 O1       1.3733   9.7963   4.9049   O1        1 UIO1   0.0000
   991 C3       1.3733   6.2047   5.2184   C3        1 UIO1   0.0000
   992 H1       1.3733   5.9603   4.3006   H1        1 UIO1   0.0000
   993 O1       1.3733  13.6967   4.9049   O1        1 UIO1   0.0000
   994 C3       1.3733  17.2883   5.2184   C3        1 UIO1   0.0000
   995 H1       1.3733  17.5327   4.3006   H1        1 UIO1   0.0000
   996 O3       2.4209  10.6988   2.4209   O3        1 UIO1   0.0000
   997 O1       3.3234  15.2782   1.3733   O1        1 UIO1   0.0000
   998 H1       7.1594  14.6738   1.3733   H1        1 UIO1   0.0000
   999 O1       3.3234   8.2148   1.3733   O1        1 UIO1   0.0000
  1000 H1       7.1594   8.8192   1.3733   H1        1 UIO1   0.0000
  1001 O1       4.9049  11.7465   3.3234   O1        1 UIO1   0.0000
  1002 H1       4.3006  11.7465   7.1594   H1        1 UIO1   0.0000
  1003 C3       1.3733   5.2184   6.2047   C3        1 UIO1   0.0000
  1004 C3       1.3733  18.2746   6.2047   C3        1 UIO1   0.0000
  1005 C3       1.3733   6.9151   7.9013   C3        1 UIO1   0.0000
  1006 C3       1.3733  16.5779   7.9013   C3        1 UIO1   0.0000
  1007 Zr       1.3733  11.7465  24.6041   Zr        1 UIO1   0.0000
  1008 O1       3.3234  11.7465  25.6514   O1        1 UIO1   0.0000
  1009 O3       2.4209  12.7942  23.1674   O3        1 UIO1   0.0000
  1010 Zr       3.8576  11.7465  22.1198   Zr        1 UIO1   0.0000
  1011 O1       4.9049  13.6967  22.1198   O1        1 UIO1   0.0000
  1012 C2       5.5804  15.9537  22.1198   C2        1 UIO1   0.0000
  1013 H1       4.3006  17.5327  22.1198   H1        1 UIO1   0.0000
  1014 O3       2.4209  10.6988  21.0721   O3        1 UIO1   0.0000
  1015 C1       4.5224  14.8956  22.1198   C1        1 UIO1   0.0000
  1016 O1       4.9049   9.7963  22.1198   O1        1 UIO1   0.0000
  1017 C2       5.5804   7.5393  22.1198   C2        1 UIO1   0.0000
  1018 H1       4.3006   5.9603  22.1198   H1        1 UIO1   0.0000
  1019 C1       4.5224   8.5974  22.1198   C1        1 UIO1   0.0000
  1020 Zr       1.3733  14.2309  22.1198   Zr        1 UIO1   0.0000
  1021 O1       1.3733  15.2782  24.0699   O1        1 UIO1   0.0000
  1022 C2       1.3733  15.9537  26.3269   C2        1 UIO1   0.0000
  1023 C3       1.3733  15.5917  27.6616   C3        1 UIO1   0.0000
  1024 H1       1.3733  14.6738  27.9059   H1        1 UIO1   0.0000
  1025 C1       1.3733  14.8956  25.2689   C1        1 UIO1   0.0000
  1026 O1       1.3733  15.2782  20.1696   O1        1 UIO1   0.0000
  1027 C2       1.3733  15.9537  17.9126   C2        1 UIO1   0.0000
  1028 C3       1.3733  15.5917  16.5779   C3        1 UIO1   0.0000
  1029 H1       1.3733  14.6738  16.3336   H1        1 UIO1   0.0000
  1030 C1       1.3733  14.8956  18.9706   C1        1 UIO1   0.0000
  1031 Zr       1.3733   9.2621  22.1198   Zr        1 UIO1   0.0000
  1032 O1       1.3733   8.2148  20.1696   O1        1 UIO1   0.0000
  1033 C2       1.3733   7.5393  17.9126   C2        1 UIO1   0.0000
  1034 C3       1.3733   7.9013  16.5779   C3        1 UIO1   0.0000
  1035 H1       1.3733   8.8192  16.3336   H1        1 UIO1   0.0000
  1036 C1       1.3733   8.5974  18.9706   C1        1 UIO1   0.0000
  1037 O1       1.3733   8.2148  24.0699   O1        1 UIO1   0.0000
  1038 C2       1.3733   7.5393  26.3269   C2        1 UIO1   0.0000
  1039 C3       1.3733   7.9013  27.6616   C3        1 UIO1   0.0000
  1040 H1       1.3733   8.8192  27.9059   H1        1 UIO1   0.0000
  1041 C1       1.3733   8.5974  25.2689   C1        1 UIO1   0.0000
  1042 Zr       1.3733  11.7465  19.6354   Zr        1 UIO1   0.0000
  1043 O1       1.3733  13.6967  18.5881   O1        1 UIO1   0.0000
  1044 C3       1.3733  17.2883  18.2746   C3        1 UIO1   0.0000
  1045 H1       1.3733  17.5327  19.1924   H1        1 UIO1   0.0000
  1046 O1       1.3733   9.7963  18.5881   O1        1 UIO1   0.0000
  1047 C3       1.3733   6.2047  18.2746   C3        1 UIO1   0.0000
  1048 H1       1.3733   5.9603  19.1924   H1        1 UIO1   0.0000
  1049 O3       2.4209  12.7942  21.0721   O3        1 UIO1   0.0000
  1050 O1       1.3733   9.7963  25.6514   O1        1 UIO1   0.0000
  1051 C3       1.3733   6.2047  25.9649   C3        1 UIO1   0.0000
  1052 H1       1.3733   5.9603  25.0471   H1        1 UIO1   0.0000
  1053 O1       1.3733  13.6967  25.6514   O1        1 UIO1   0.0000
  1054 C3       1.3733  17.2883  25.9649   C3        1 UIO1   0.0000
  1055 H1       1.3733  17.5327  25.0471   H1        1 UIO1   0.0000
  1056 O3       2.4209  10.6988  23.1674   O3        1 UIO1   0.0000
  1057 O1       3.3234  15.2782  22.1198   O1        1 UIO1   0.0000
  1058 H1       7.1594  14.6738  22.1198   H1        1 UIO1   0.0000
  1059 O1       3.3234   8.2148  22.1198   O1        1 UIO1   0.0000
  1060 H1       7.1594   8.8192  22.1198   H1        1 UIO1   0.0000
  1061 O1       4.9049  11.7465  20.1696   O1        1 UIO1   0.0000
  1062 C2       5.5804  11.7465  17.9126   C2        1 UIO1   0.0000
  1063 H1       4.3006  11.7465  16.3336   H1        1 UIO1   0.0000
  1064 C1       4.5224  11.7465  18.9706   C1        1 UIO1   0.0000
  1065 O1       4.9049  11.7465  24.0699   O1        1 UIO1   0.0000
  1066 O1       3.3234  11.7465  18.5881   O1        1 UIO1   0.0000
  1067 H1       7.1594  11.7465  19.1924   H1        1 UIO1   0.0000
  1068 C3       1.3733   5.2184  17.2883   C3        1 UIO1   0.0000
  1069 C3       1.3733   5.2184  26.9512   C3        1 UIO1   0.0000
  1070 C3       1.3733  18.2746  26.9512   C3        1 UIO1   0.0000
  1071 C3       1.3733  18.2746  17.2883   C3        1 UIO1   0.0000
  1072 C3       1.3733   6.9151  28.6478   C3        1 UIO1   0.0000
  1073 C3       1.3733  16.5779  28.6478   C3        1 UIO1   0.0000
  1074 C3       1.3733  16.5779  15.5917   C3        1 UIO1   0.0000
  1075 C3       1.3733   6.9151  15.5917   C3        1 UIO1   0.0000
  1076 Zr       1.3733  32.4930   3.8576   Zr        1 UIO1   0.0000
  1077 O1       3.3234  32.4930   4.9049   O1        1 UIO1   0.0000
  1078 C2       5.5804  32.4930   5.5804   C2        1 UIO1   0.0000
  1079 H1       7.1594  32.4930   4.3006   H1        1 UIO1   0.0000
  1080 C1       4.5224  32.4930   4.5224   C1        1 UIO1   0.0000
  1081 Zr       3.8576  32.4930   1.3733   Zr        1 UIO1   0.0000
  1082 O1       4.9049  30.5428   1.3733   O1        1 UIO1   0.0000
  1083 C2       5.5804  28.2858   1.3733   C2        1 UIO1   0.0000
  1084 H1       4.3006  26.7068   1.3733   H1        1 UIO1   0.0000
  1085 C1       4.5224  29.3439   1.3733   C1        1 UIO1   0.0000
  1086 Zr       1.3733  30.0086   1.3733   Zr        1 UIO1   0.0000
  1087 O1       1.3733  28.9613   3.3234   O1        1 UIO1   0.0000
  1088 O1       1.3733  30.5428   4.9049   O1        1 UIO1   0.0000
  1089 O3       2.4209  31.4453   2.4209   O3        1 UIO1   0.0000
  1090 O1       3.3234  28.9613   1.3733   O1        1 UIO1   0.0000
  1091 H1       7.1594  29.5657   1.3733   H1        1 UIO1   0.0000
  1092 O1       4.9049  32.4930   3.3234   O1        1 UIO1   0.0000
  1093 H1       4.3006  32.4930   7.1594   H1        1 UIO1   0.0000
  1094 Zr       1.3733  32.4930  24.6041   Zr        1 UIO1   0.0000
  1095 O1       3.3234  32.4930  25.6514   O1        1 UIO1   0.0000
  1096 C2       5.5804  32.4930  26.3269   C2        1 UIO1   0.0000
  1097 H1       7.1594  32.4930  25.0471   H1        1 UIO1   0.0000
  1098 C1       4.5224  32.4930  25.2689   C1        1 UIO1   0.0000
  1099 Zr       3.8576  32.4930  22.1198   Zr        1 UIO1   0.0000
  1100 O3       2.4209  31.4453  21.0721   O3        1 UIO1   0.0000
  1101 O1       4.9049  30.5428  22.1198   O1        1 UIO1   0.0000
  1102 Zr       1.3733  30.0086  22.1198   Zr        1 UIO1   0.0000
  1103 O1       1.3733  28.9613  20.1696   O1        1 UIO1   0.0000
  1104 C2       1.3733  28.2858  17.9126   C2        1 UIO1   0.0000
  1105 C3       1.3733  28.6478  16.5779   C3        1 UIO1   0.0000
  1106 H1       1.3733  29.5657  16.3336   H1        1 UIO1   0.0000
  1107 C1       1.3733  29.3439  18.9706   C1        1 UIO1   0.0000
  1108 O1       1.3733  28.9613  24.0699   O1        1 UIO1   0.0000
  1109 Zr       1.3733  32.4930  19.6354   Zr        1 UIO1   0.0000
  1110 O1       1.3733  30.5428  18.5881   O1        1 UIO1   0.0000
  1111 C3       1.3733  26.9512  18.2746   C3        1 UIO1   0.0000
  1112 H1       1.3733  26.7068  19.1924   H1        1 UIO1   0.0000
  1113 O1       1.3733  30.5428  25.6514   O1        1 UIO1   0.0000
  1114 O3       2.4209  31.4453  23.1674   O3        1 UIO1   0.0000
  1115 O1       3.3234  28.9613  22.1198   O1        1 UIO1   0.0000
  1116 O1       4.9049  32.4930  20.1696   O1        1 UIO1   0.0000
  1117 C2       5.5804  32.4930  17.9126   C2        1 UIO1   0.0000
  1118 H1       4.3006  32.4930  16.3336   H1        1 UIO1   0.0000
  1119 C1       4.5224  32.4930  18.9706   C1        1 UIO1   0.0000
  1120 O1       4.9049  32.4930  24.0699   O1        1 UIO1   0.0000
  1121 H1       4.3006  32.4930  27.9059   H1        1 UIO1   0.0000
  1122 O1       3.3234  32.4930  18.5881   O1        1 UIO1   0.0000
  1123 H1       7.1594  32.4930  19.1924   H1        1 UIO1   0.0000
  1124 C3       1.3733  25.9649  17.2883   C3        1 UIO1   0.0000
  1125 C3       1.3733  27.6616  15.5917   C3        1 UIO1   0.0000
  1126 Zr      22.1198  11.7465   3.8576   Zr        1 UIO1   0.0000
  1127 O1      24.0699  11.7465   4.9049   O1        1 UIO1   0.0000
  1128 C2      26.3269  11.7465   5.5804   C2        1 UIO1   0.0000
  1129 H1      27.9059  11.7465   4.3006   H1        1 UIO1   0.0000
  1130 O3      21.0721  10.6988   2.4209   O3        1 UIO1   0.0000
  1131 C1      25.2689  11.7465   4.5224   C1        1 UIO1   0.0000
  1132 O1      20.1696  11.7465   4.9049   O1        1 UIO1   0.0000
  1133 C2      17.9126  11.7465   5.5804   C2        1 UIO1   0.0000
  1134 H1      16.3336  11.7465   4.3006   H1        1 UIO1   0.0000
  1135 O3      23.1674  12.7942   2.4209   O3        1 UIO1   0.0000
  1136 C1      18.9706  11.7465   4.5224   C1        1 UIO1   0.0000
  1137 Zr      24.6041  11.7465   1.3733   Zr        1 UIO1   0.0000
  1138 O1      25.6514  13.6967   1.3733   O1        1 UIO1   0.0000
  1139 C2      26.3269  15.9537   1.3733   C2        1 UIO1   0.0000
  1140 H1      25.0471  17.5327   1.3733   H1        1 UIO1   0.0000
  1141 C1      25.2689  14.8956   1.3733   C1        1 UIO1   0.0000
  1142 O1      25.6514   9.7963   1.3733   O1        1 UIO1   0.0000
  1143 C2      26.3269   7.5393   1.3733   C2        1 UIO1   0.0000
  1144 H1      25.0471   5.9603   1.3733   H1        1 UIO1   0.0000
  1145 C1      25.2689   8.5974   1.3733   C1        1 UIO1   0.0000
  1146 Zr      19.6354  11.7465   1.3733   Zr        1 UIO1   0.0000
  1147 O1      18.5881   9.7963   1.3733   O1        1 UIO1   0.0000
  1148 C2      17.9126   7.5393   1.3733   C2        1 UIO1   0.0000
  1149 H1      19.1924   5.9603   1.3733   H1        1 UIO1   0.0000
  1150 C1      18.9706   8.5974   1.3733   C1        1 UIO1   0.0000
  1151 O1      18.5881  13.6967   1.3733   O1        1 UIO1   0.0000
  1152 C2      17.9126  15.9537   1.3733   C2        1 UIO1   0.0000
  1153 H1      19.1924  17.5327   1.3733   H1        1 UIO1   0.0000
  1154 C1      18.9706  14.8956   1.3733   C1        1 UIO1   0.0000
  1155 Zr      22.1198  14.2309   1.3733   Zr        1 UIO1   0.0000
  1156 O1      22.1198  15.2782   3.3234   O1        1 UIO1   0.0000
  1157 C2      22.1198  15.9537   5.5804   C2        1 UIO1   0.0000
  1158 C3      22.1198  15.5917   6.9151   C3        1 UIO1   0.0000
  1159 H1      22.1198  14.6738   7.1594   H1        1 UIO1   0.0000
  1160 C1      22.1198  14.8956   4.5224   C1        1 UIO1   0.0000
  1161 Zr      22.1198   9.2621   1.3733   Zr        1 UIO1   0.0000
  1162 O1      22.1198   8.2148   3.3234   O1        1 UIO1   0.0000
  1163 C2      22.1198   7.5393   5.5804   C2        1 UIO1   0.0000
  1164 C3      22.1198   7.9013   6.9151   C3        1 UIO1   0.0000
  1165 H1      22.1198   8.8192   7.1594   H1        1 UIO1   0.0000
  1166 C1      22.1198   8.5974   4.5224   C1        1 UIO1   0.0000
  1167 O1      22.1198   9.7963   4.9049   O1        1 UIO1   0.0000
  1168 C3      22.1198   6.2047   5.2184   C3        1 UIO1   0.0000
  1169 H1      22.1198   5.9603   4.3006   H1        1 UIO1   0.0000
  1170 O3      21.0721  12.7942   2.4209   O3        1 UIO1   0.0000
  1171 O1      22.1198  13.6967   4.9049   O1        1 UIO1   0.0000
  1172 C3      22.1198  17.2883   5.2184   C3        1 UIO1   0.0000
  1173 H1      22.1198  17.5327   4.3006   H1        1 UIO1   0.0000
  1174 O3      23.1674  10.6988   2.4209   O3        1 UIO1   0.0000
  1175 O1      24.0699  15.2782   1.3733   O1        1 UIO1   0.0000
  1176 H1      27.9059  14.6738   1.3733   H1        1 UIO1   0.0000
  1177 O1      20.1696  15.2782   1.3733   O1        1 UIO1   0.0000
  1178 H1      16.3336  14.6738   1.3733   H1        1 UIO1   0.0000
  1179 O1      20.1696   8.2148   1.3733   O1        1 UIO1   0.0000
  1180 H1      16.3336   8.8192   1.3733   H1        1 UIO1   0.0000
  1181 O1      24.0699   8.2148   1.3733   O1        1 UIO1   0.0000
  1182 H1      27.9059   8.8192   1.3733   H1        1 UIO1   0.0000
  1183 O1      25.6514  11.7465   3.3234   O1        1 UIO1   0.0000
  1184 H1      25.0471  11.7465   7.1594   H1        1 UIO1   0.0000
  1185 O1      18.5881  11.7465   3.3234   O1        1 UIO1   0.0000
  1186 H1      19.1924  11.7465   7.1594   H1        1 UIO1   0.0000
  1187 C3      22.1198   5.2184   6.2047   C3        1 UIO1   0.0000
  1188 C3      22.1198  18.2746   6.2047   C3        1 UIO1   0.0000
  1189 C3      22.1198   6.9151   7.9013   C3        1 UIO1   0.0000
  1190 C3      22.1198  16.5779   7.9013   C3        1 UIO1   0.0000
  1191 Zr      22.1198  11.7465  24.6041   Zr        1 UIO1   0.0000
  1192 O1      24.0699  11.7465  25.6514   O1        1 UIO1   0.0000
  1193 C2      26.3269  11.7465  26.3269   C2        1 UIO1   0.0000
  1194 H1      27.9059  11.7465  25.0471   H1        1 UIO1   0.0000
  1195 O3      21.0721  10.6988  23.1674   O3        1 UIO1   0.0000
  1196 C1      25.2689  11.7465  25.2689   C1        1 UIO1   0.0000
  1197 O1      20.1696  11.7465  25.6514   O1        1 UIO1   0.0000
  1198 C2      17.9126  11.7465  26.3269   C2        1 UIO1   0.0000
  1199 H1      16.3336  11.7465  25.0471   H1        1 UIO1   0.0000
  1200 O3      23.1674  12.7942  23.1674   O3        1 UIO1   0.0000
  1201 C1      18.9706  11.7465  25.2689   C1        1 UIO1   0.0000
  1202 Zr      24.6041  11.7465  22.1198   Zr        1 UIO1   0.0000
  1203 O1      25.6514  13.6967  22.1198   O1        1 UIO1   0.0000
  1204 C2      26.3269  15.9537  22.1198   C2        1 UIO1   0.0000
  1205 H1      25.0471  17.5327  22.1198   H1        1 UIO1   0.0000
  1206 O3      23.1674  10.6988  21.0721   O3        1 UIO1   0.0000
  1207 C1      25.2689  14.8956  22.1198   C1        1 UIO1   0.0000
  1208 O1      25.6514   9.7963  22.1198   O1        1 UIO1   0.0000
  1209 C2      26.3269   7.5393  22.1198   C2        1 UIO1   0.0000
  1210 H1      25.0471   5.9603  22.1198   H1        1 UIO1   0.0000
  1211 C1      25.2689   8.5974  22.1198   C1        1 UIO1   0.0000
  1212 Zr      19.6354  11.7465  22.1198   Zr        1 UIO1   0.0000
  1213 O1      18.5881   9.7963  22.1198   O1        1 UIO1   0.0000
  1214 C2      17.9126   7.5393  22.1198   C2        1 UIO1   0.0000
  1215 H1      19.1924   5.9603  22.1198   H1        1 UIO1   0.0000
  1216 O3      21.0721  12.7942  21.0721   O3        1 UIO1   0.0000
  1217 C1      18.9706   8.5974  22.1198   C1        1 UIO1   0.0000
  1218 O1      18.5881  13.6967  22.1198   O1        1 UIO1   0.0000
  1219 C2      17.9126  15.9537  22.1198   C2        1 UIO1   0.0000
  1220 H1      19.1924  17.5327  22.1198   H1        1 UIO1   0.0000
  1221 C1      18.9706  14.8956  22.1198   C1        1 UIO1   0.0000
  1222 Zr      22.1198  14.2309  22.1198   Zr        1 UIO1   0.0000
  1223 O1      22.1198  15.2782  24.0699   O1        1 UIO1   0.0000
  1224 C2      22.1198  15.9537  26.3269   C2        1 UIO1   0.0000
  1225 C3      22.1198  15.5917  27.6616   C3        1 UIO1   0.0000
  1226 H1      22.1198  14.6738  27.9059   H1        1 UIO1   0.0000
  1227 C1      22.1198  14.8956  25.2689   C1        1 UIO1   0.0000
  1228 O1      22.1198  15.2782  20.1696   O1        1 UIO1   0.0000
  1229 Zr      22.1198   9.2621  22.1198   Zr        1 UIO1   0.0000
  1230 O1      22.1198   8.2148  20.1696   O1        1 UIO1   0.0000
  1231 O1      22.1198   8.2148  24.0699   O1        1 UIO1   0.0000
  1232 C2      22.1198   7.5393  26.3269   C2        1 UIO1   0.0000
  1233 C3      22.1198   7.9013  27.6616   C3        1 UIO1   0.0000
  1234 H1      22.1198   8.8192  27.9059   H1        1 UIO1   0.0000
  1235 C1      22.1198   8.5974  25.2689   C1        1 UIO1   0.0000
  1236 Zr      22.1198  11.7465  19.6354   Zr        1 UIO1   0.0000
  1237 O1      22.1198  13.6967  18.5881   O1        1 UIO1   0.0000
  1238 O3      21.0721  10.6988  21.0721   O3        1 UIO1   0.0000
  1239 O1      22.1198   9.7963  18.5881   O1        1 UIO1   0.0000
  1240 O3      23.1674  12.7942  21.0721   O3        1 UIO1   0.0000
  1241 O1      22.1198   9.7963  25.6514   O1        1 UIO1   0.0000
  1242 C3      22.1198   6.2047  25.9649   C3        1 UIO1   0.0000
  1243 H1      22.1198   5.9603  25.0471   H1        1 UIO1   0.0000
  1244 O3      21.0721  12.7942  23.1674   O3        1 UIO1   0.0000
  1245 O1      22.1198  13.6967  25.6514   O1        1 UIO1   0.0000
  1246 C3      22.1198  17.2883  25.9649   C3        1 UIO1   0.0000
  1247 H1      22.1198  17.5327  25.0471   H1        1 UIO1   0.0000
  1248 O3      23.1674  10.6988  23.1674   O3        1 UIO1   0.0000
  1249 O1      24.0699  15.2782  22.1198   O1        1 UIO1   0.0000
  1250 H1      27.9059  14.6738  22.1198   H1        1 UIO1   0.0000
  1251 O1      20.1696  15.2782  22.1198   O1        1 UIO1   0.0000
  1252 H1      16.3336  14.6738  22.1198   H1        1 UIO1   0.0000
  1253 O1      20.1696   8.2148  22.1198   O1        1 UIO1   0.0000
  1254 H1      16.3336   8.8192  22.1198   H1        1 UIO1   0.0000
  1255 O1      24.0699   8.2148  22.1198   O1        1 UIO1   0.0000
  1256 H1      27.9059   8.8192  22.1198   H1        1 UIO1   0.0000
  1257 O1      25.6514  11.7465  20.1696   O1        1 UIO1   0.0000
  1258 C2      26.3269  11.7465  17.9126   C2        1 UIO1   0.0000
  1259 H1      25.0471  11.7465  16.3336   H1        1 UIO1   0.0000
  1260 C1      25.2689  11.7465  18.9706   C1        1 UIO1   0.0000
  1261 O1      25.6514  11.7465  24.0699   O1        1 UIO1   0.0000
  1262 H1      25.0471  11.7465  27.9059   H1        1 UIO1   0.0000
  1263 O1      18.5881  11.7465  24.0699   O1        1 UIO1   0.0000
  1264 H1      19.1924  11.7465  27.9059   H1        1 UIO1   0.0000
  1265 O1      18.5881  11.7465  20.1696   O1        1 UIO1   0.0000
  1266 C2      17.9126  11.7465  17.9126   C2        1 UIO1   0.0000
  1267 H1      19.1924  11.7465  16.3336   H1        1 UIO1   0.0000
  1268 C1      18.9706  11.7465  18.9706   C1        1 UIO1   0.0000
  1269 O1      20.1696  11.7465  18.5881   O1        1 UIO1   0.0000
  1270 H1      16.3336  11.7465  19.1924   H1        1 UIO1   0.0000
  1271 O1      24.0699  11.7465  18.5881   O1        1 UIO1   0.0000
  1272 H1      27.9059  11.7465  19.1924   H1        1 UIO1   0.0000
  1273 C3      22.1198   5.2184  26.9512   C3        1 UIO1   0.0000
  1274 C3      22.1198  18.2746  26.9512   C3        1 UIO1   0.0000
  1275 C3      22.1198   6.9151  28.6478   C3        1 UIO1   0.0000
  1276 C3      22.1198  16.5779  28.6478   C3        1 UIO1   0.0000
  1277 Zr      22.1198  32.4930   3.8576   Zr        1 UIO1   0.0000
  1278 O1      24.0699  32.4930   4.9049   O1        1 UIO1   0.0000
  1279 C2      26.3269  32.4930   5.5804   C2        1 UIO1   0.0000
  1280 H1      27.9059  32.4930   4.3006   H1        1 UIO1   0.0000
  1281 O3      21.0721  31.4453   2.4209   O3        1 UIO1   0.0000
  1282 C1      25.2689  32.4930   4.5224   C1        1 UIO1   0.0000
  1283 O1      20.1696  32.4930   4.9049   O1        1 UIO1   0.0000
  1284 C2      17.9126  32.4930   5.5804   C2        1 UIO1   0.0000
  1285 H1      16.3336  32.4930   4.3006   H1        1 UIO1   0.0000
  1286 C1      18.9706  32.4930   4.5224   C1        1 UIO1   0.0000
  1287 Zr      24.6041  32.4930   1.3733   Zr        1 UIO1   0.0000
  1288 O1      25.6514  30.5428   1.3733   O1        1 UIO1   0.0000
  1289 C2      26.3269  28.2858   1.3733   C2        1 UIO1   0.0000
  1290 H1      25.0471  26.7068   1.3733   H1        1 UIO1   0.0000
  1291 C1      25.2689  29.3439   1.3733   C1        1 UIO1   0.0000
  1292 Zr      19.6354  32.4930   1.3733   Zr        1 UIO1   0.0000
  1293 O1      18.5881  30.5428   1.3733   O1        1 UIO1   0.0000
  1294 C2      17.9126  28.2858   1.3733   C2        1 UIO1   0.0000
  1295 H1      19.1924  26.7068   1.3733   H1        1 UIO1   0.0000
  1296 C1      18.9706  29.3439   1.3733   C1        1 UIO1   0.0000
  1297 Zr      22.1198  30.0086   1.3733   Zr        1 UIO1   0.0000
  1298 O1      22.1198  28.9613   3.3234   O1        1 UIO1   0.0000
  1299 C2      22.1198  28.2858   5.5804   C2        1 UIO1   0.0000
  1300 C3      22.1198  28.6478   6.9151   C3        1 UIO1   0.0000
  1301 H1      22.1198  29.5657   7.1594   H1        1 UIO1   0.0000
  1302 C1      22.1198  29.3439   4.5224   C1        1 UIO1   0.0000
  1303 O1      22.1198  30.5428   4.9049   O1        1 UIO1   0.0000
  1304 C3      22.1198  26.9512   5.2184   C3        1 UIO1   0.0000
  1305 H1      22.1198  26.7068   4.3006   H1        1 UIO1   0.0000
  1306 O3      23.1674  31.4453   2.4209   O3        1 UIO1   0.0000
  1307 O1      20.1696  28.9613   1.3733   O1        1 UIO1   0.0000
  1308 H1      16.3336  29.5657   1.3733   H1        1 UIO1   0.0000
  1309 O1      24.0699  28.9613   1.3733   O1        1 UIO1   0.0000
  1310 H1      27.9059  29.5657   1.3733   H1        1 UIO1   0.0000
  1311 O1      25.6514  32.4930   3.3234   O1        1 UIO1   0.0000
  1312 H1      25.0471  32.4930   7.1594   H1        1 UIO1   0.0000
  1313 O1      18.5881  32.4930   3.3234   O1        1 UIO1   0.0000
  1314 H1      19.1924  32.4930   7.1594   H1        1 UIO1   0.0000
  1315 C3      22.1198  25.9649   6.2047   C3        1 UIO1   0.0000
  1316 C3      22.1198  27.6616   7.9013   C3        1 UIO1   0.0000
  1317 Zr      22.1198  32.4930  24.6041   Zr        1 UIO1   0.0000
  1318 O1      24.0699  32.4930  25.6514   O1        1 UIO1   0.0000
  1319 C2      26.3269  32.4930  26.3269   C2        1 UIO1   0.0000
  1320 H1      27.9059  32.4930  25.0471   H1        1 UIO1   0.0000
  1321 O3      21.0721  31.4453  23.1674   O3        1 UIO1   0.0000
  1322 C1      25.2689  32.4930  25.2689   C1        1 UIO1   0.0000
  1323 O1      20.1696  32.4930  25.6514   O1        1 UIO1   0.0000
  1324 C2      17.9126  32.4930  26.3269   C2        1 UIO1   0.0000
  1325 H1      16.3336  32.4930  25.0471   H1        1 UIO1   0.0000
  1326 C1      18.9706  32.4930  25.2689   C1        1 UIO1   0.0000
  1327 Zr      24.6041  32.4930  22.1198   Zr        1 UIO1   0.0000
  1328 O3      23.1674  31.4453  21.0721   O3        1 UIO1   0.0000
  1329 O1      25.6514  30.5428  22.1198   O1        1 UIO1   0.0000
  1330 C2      26.3269  28.2858  22.1198   C2        1 UIO1   0.0000
  1331 H1      25.0471  26.7068  22.1198   H1        1 UIO1   0.0000
  1332 C1      25.2689  29.3439  22.1198   C1        1 UIO1   0.0000
  1333 Zr      19.6354  32.4930  22.1198   Zr        1 UIO1   0.0000
  1334 O1      18.5881  30.5428  22.1198   O1        1 UIO1   0.0000
  1335 C2      17.9126  28.2858  22.1198   C2        1 UIO1   0.0000
  1336 H1      19.1924  26.7068  22.1198   H1        1 UIO1   0.0000
  1337 C1      18.9706  29.3439  22.1198   C1        1 UIO1   0.0000
  1338 Zr      22.1198  30.0086  22.1198   Zr        1 UIO1   0.0000
  1339 O1      22.1198  28.9613  20.1696   O1        1 UIO1   0.0000
  1340 C2      22.1198  28.2858  17.9126   C2        1 UIO1   0.0000
  1341 C3      22.1198  28.6478  16.5779   C3        1 UIO1   0.0000
  1342 H1      22.1198  29.5657  16.3336   H1        1 UIO1   0.0000
  1343 C1      22.1198  29.3439  18.9706   C1        1 UIO1   0.0000
  1344 O1      22.1198  28.9613  24.0699   O1        1 UIO1   0.0000
  1345 C2      22.1198  28.2858  26.3269   C2        1 UIO1   0.0000
  1346 C3      22.1198  28.6478  27.6616   C3        1 UIO1   0.0000
  1347 H1      22.1198  29.5657  27.9059   H1        1 UIO1   0.0000
  1348 C1      22.1198  29.3439  25.2689   C1        1 UIO1   0.0000
  1349 Zr      22.1198  32.4930  19.6354   Zr        1 UIO1   0.0000
  1350 O3      21.0721  31.4453  21.0721   O3        1 UIO1   0.0000
  1351 O1      22.1198  30.5428  18.5881   O1        1 UIO1   0.0000
  1352 C3      22.1198  26.9512  18.2746   C3        1 UIO1   0.0000
  1353 H1      22.1198  26.7068  19.1924   H1        1 UIO1   0.0000
  1354 O1      22.1198  30.5428  25.6514   O1        1 UIO1   0.0000
  1355 C3      22.1198  26.9512  25.9649   C3        1 UIO1   0.0000
  1356 H1      22.1198  26.7068  25.0471   H1        1 UIO1   0.0000
  1357 O3      23.1674  31.4453  23.1674   O3        1 UIO1   0.0000
  1358 O1      20.1696  28.9613  22.1198   O1        1 UIO1   0.0000
  1359 H1      16.3336  29.5657  22.1198   H1        1 UIO1   0.0000
  1360 O1      24.0699  28.9613  22.1198   O1        1 UIO1   0.0000
  1361 H1      27.9059  29.5657  22.1198   H1        1 UIO1   0.0000
  1362 O1      25.6514  32.4930  20.1696   O1        1 UIO1   0.0000
  1363 C2      26.3269  32.4930  17.9126   C2        1 UIO1   0.0000
  1364 H1      25.0471  32.4930  16.3336   H1        1 UIO1   0.0000
  1365 C1      25.2689  32.4930  18.9706   C1        1 UIO1   0.0000
  1366 O1      25.6514  32.4930  24.0699   O1        1 UIO1   0.0000
  1367 H1      25.0471  32.4930  27.9059   H1        1 UIO1   0.0000
  1368 O1      18.5881  32.4930  24.0699   O1        1 UIO1   0.0000
  1369 H1      19.1924  32.4930  27.9059   H1        1 UIO1   0.0000
  1370 O1      18.5881  32.4930  20.1696   O1        1 UIO1   0.0000
  1371 C2      17.9126  32.4930  17.9126   C2        1 UIO1   0.0000
  1372 H1      19.1924  32.4930  16.3336   H1        1 UIO1   0.0000
  1373 C1      18.9706  32.4930  18.9706   C1        1 UIO1   0.0000
  1374 O1      20.1696  32.4930  18.5881   O1        1 UIO1   0.0000
  1375 H1      16.3336  32.4930  19.1924   H1        1 UIO1   0.0000
  1376 O1      24.0699  32.4930  18.5881   O1        1 UIO1   0.0000
  1377 H1      27.9059  32.4930  19.1924   H1        1 UIO1   0.0000
  1378 C3      22.1198  25.9649  17.2883   C3        1 UIO1   0.0000
  1379 C3      22.1198  25.9649  26.9512   C3        1 UIO1   0.0000
  1380 C3      22.1198  27.6616  28.6478   C3        1 UIO1   0.0000
  1381 C3      22.1198  27.6616  15.5917   C3        1 UIO1   0.0000
  1382 Zr       1.3733   1.3733  14.2309   Zr        1 UIO1   0.0000
  1383 O1       3.3234   1.3733  15.2782   O1        1 UIO1   0.0000
  1384 C2       5.5804   1.3733  15.9537   C2        1 UIO1   0.0000
  1385 H1       7.1594   1.3733  14.6738   H1        1 UIO1   0.0000
  1386 C1       4.5224   1.3733  14.8956   C1        1 UIO1   0.0000
  1387 O3       2.4209   2.4209  12.7942   O3        1 UIO1   0.0000
  1388 Zr       3.8576   1.3733  11.7465   Zr        1 UIO1   0.0000
  1389 O1       4.9049   3.3234  11.7465   O1        1 UIO1   0.0000
  1390 C2       5.5804   5.5804  11.7465   C2        1 UIO1   0.0000
  1391 H1       4.3006   7.1594  11.7465   H1        1 UIO1   0.0000
  1392 C1       4.5224   4.5224  11.7465   C1        1 UIO1   0.0000
  1393 Zr       1.3733   3.8576  11.7465   Zr        1 UIO1   0.0000
  1394 O1       1.3733   4.9049  13.6967   O1        1 UIO1   0.0000
  1395 C2       1.3733   5.5804  15.9537   C2        1 UIO1   0.0000
  1396 H1       1.3733   4.3006  17.5327   H1        1 UIO1   0.0000
  1397 C1       1.3733   4.5224  14.8956   C1        1 UIO1   0.0000
  1398 O1       1.3733   4.9049   9.7963   O1        1 UIO1   0.0000
  1399 C2       1.3733   5.5804   7.5393   C2        1 UIO1   0.0000
  1400 H1       1.3733   4.3006   5.9603   H1        1 UIO1   0.0000
  1401 C1       1.3733   4.5224   8.5974   C1        1 UIO1   0.0000
  1402 Zr       1.3733   1.3733   9.2621   Zr        1 UIO1   0.0000
  1403 O1       1.3733   3.3234   8.2148   O1        1 UIO1   0.0000
  1404 H1       1.3733   7.1594   8.8192   H1        1 UIO1   0.0000
  1405 O3       2.4209   2.4209  10.6988   O3        1 UIO1   0.0000
  1406 O1       1.3733   3.3234  15.2782   O1        1 UIO1   0.0000
  1407 H1       1.3733   7.1594  14.6738   H1        1 UIO1   0.0000
  1408 O1       3.3234   4.9049  11.7465   O1        1 UIO1   0.0000
  1409 H1       7.1594   4.3006  11.7465   H1        1 UIO1   0.0000
  1410 O1       4.9049   1.3733   9.7963   O1        1 UIO1   0.0000
  1411 C2       5.5804   1.3733   7.5393   C2        1 UIO1   0.0000
  1412 H1       4.3006   1.3733   5.9603   H1        1 UIO1   0.0000
  1413 C1       4.5224   1.3733   8.5974   C1        1 UIO1   0.0000
  1414 O1       4.9049   1.3733  13.6967   O1        1 UIO1   0.0000
  1415 H1       4.3006   1.3733  17.5327   H1        1 UIO1   0.0000
  1416 O1       3.3234   1.3733   8.2148   O1        1 UIO1   0.0000
  1417 H1       7.1594   1.3733   8.8192   H1        1 UIO1   0.0000
  1418 Zr       3.8576   1.3733  32.4930   Zr        1 UIO1   0.0000
  1419 O1       4.9049   3.3234  32.4930   O1        1 UIO1   0.0000
  1420 C2       5.5804   5.5804  32.4930   C2        1 UIO1   0.0000
  1421 H1       4.3006   7.1594  32.4930   H1        1 UIO1   0.0000
  1422 C1       4.5224   4.5224  32.4930   C1        1 UIO1   0.0000
  1423 Zr       1.3733   3.8576  32.4930   Zr        1 UIO1   0.0000
  1424 O1       1.3733   4.9049  30.5428   O1        1 UIO1   0.0000
  1425 C2       1.3733   5.5804  28.2858   C2        1 UIO1   0.0000
  1426 H1       1.3733   4.3006  26.7068   H1        1 UIO1   0.0000
  1427 C1       1.3733   4.5224  29.3439   C1        1 UIO1   0.0000
  1428 Zr       1.3733   1.3733  30.0086   Zr        1 UIO1   0.0000
  1429 O1       1.3733   3.3234  28.9613   O1        1 UIO1   0.0000
  1430 H1       1.3733   7.1594  29.5657   H1        1 UIO1   0.0000
  1431 O3       2.4209   2.4209  31.4453   O3        1 UIO1   0.0000
  1432 O1       3.3234   4.9049  32.4930   O1        1 UIO1   0.0000
  1433 H1       7.1594   4.3006  32.4930   H1        1 UIO1   0.0000
  1434 O1       4.9049   1.3733  30.5428   O1        1 UIO1   0.0000
  1435 C2       5.5804   1.3733  28.2858   C2        1 UIO1   0.0000
  1436 H1       4.3006   1.3733  26.7068   H1        1 UIO1   0.0000
  1437 C1       4.5224   1.3733  29.3439   C1        1 UIO1   0.0000
  1438 O1       3.3234   1.3733  28.9613   O1        1 UIO1   0.0000
  1439 H1       7.1594   1.3733  29.5657   H1        1 UIO1   0.0000
  1440 Zr       1.3733  22.1198  14.2309   Zr        1 UIO1   0.0000
  1441 O1       3.3234  22.1198  15.2782   O1        1 UIO1   0.0000
  1442 O3       2.4209  23.1674  12.7942   O3        1 UIO1   0.0000
  1443 Zr       3.8576  22.1198  11.7465   Zr        1 UIO1   0.0000
  1444 O1       4.9049  24.0699  11.7465   O1        1 UIO1   0.0000
  1445 C2       5.5804  26.3269  11.7465   C2        1 UIO1   0.0000
  1446 H1       4.3006  27.9059  11.7465   H1        1 UIO1   0.0000
  1447 O3       2.4209  21.0721  10.6988   O3        1 UIO1   0.0000
  1448 C1       4.5224  25.2689  11.7465   C1        1 UIO1   0.0000
  1449 O1       4.9049  20.1696  11.7465   O1        1 UIO1   0.0000
  1450 Zr       1.3733  24.6041  11.7465   Zr        1 UIO1   0.0000
  1451 O1       1.3733  25.6514  13.6967   O1        1 UIO1   0.0000
  1452 C2       1.3733  26.3269  15.9537   C2        1 UIO1   0.0000
  1453 H1       1.3733  25.0471  17.5327   H1        1 UIO1   0.0000
  1454 C1       1.3733  25.2689  14.8956   C1        1 UIO1   0.0000
  1455 O1       1.3733  25.6514   9.7963   O1        1 UIO1   0.0000
  1456 Zr       1.3733  19.6354  11.7465   Zr        1 UIO1   0.0000
  1457 O1       1.3733  18.5881   9.7963   O1        1 UIO1   0.0000
  1458 C2       1.3733  17.9126   7.5393   C2        1 UIO1   0.0000
  1459 H1       1.3733  19.1924   5.9603   H1        1 UIO1   0.0000
  1460 C1       1.3733  18.9706   8.5974   C1        1 UIO1   0.0000
  1461 O1       1.3733  18.5881  13.6967   O1        1 UIO1   0.0000
  1462 C2       1.3733  17.9126  15.9537   C2        1 UIO1   0.0000
  1463 H1       1.3733  19.1924  17.5327   H1        1 UIO1   0.0000
  1464 C1       1.3733  18.9706  14.8956   C1        1 UIO1   0.0000
  1465 Zr       1.3733  22.1198   9.2621   Zr        1 UIO1   0.0000
  1466 O1       1.3733  24.0699   8.2148   O1        1 UIO1   0.0000
  1467 O1       1.3733  20.1696   8.2148   O1        1 UIO1   0.0000
  1468 H1       1.3733  16.3336   8.8192   H1        1 UIO1   0.0000
  1469 O3       2.4209  23.1674  10.6988   O3        1 UIO1   0.0000
  1470 O1       1.3733  20.1696  15.2782   O1        1 UIO1   0.0000
  1471 H1       1.3733  16.3336  14.6738   H1        1 UIO1   0.0000
  1472 O1       1.3733  24.0699  15.2782   O1        1 UIO1   0.0000
  1473 H1       1.3733  27.9059  14.6738   H1        1 UIO1   0.0000
  1474 O3       2.4209  21.0721  12.7942   O3        1 UIO1   0.0000
  1475 O1       3.3234  25.6514  11.7465   O1        1 UIO1   0.0000
  1476 H1       7.1594  25.0471  11.7465   H1        1 UIO1   0.0000
  1477 O1       3.3234  18.5881  11.7465   O1        1 UIO1   0.0000
  1478 O1       4.9049  22.1198   9.7963   O1        1 UIO1   0.0000
  1479 C2       5.5804  22.1198   7.5393   C2        1 UIO1   0.0000
  1480 H1       4.3006  22.1198   5.9603   H1        1 UIO1   0.0000
  1481 C1       4.5224  22.1198   8.5974   C1        1 UIO1   0.0000
  1482 O1       4.9049  22.1198  13.6967   O1        1 UIO1   0.0000
  1483 O1       3.3234  22.1198   8.2148   O1        1 UIO1   0.0000
  1484 H1       7.1594  22.1198   8.8192   H1        1 UIO1   0.0000
  1485 Zr       3.8576  22.1198  32.4930   Zr        1 UIO1   0.0000
  1486 O1       4.9049  24.0699  32.4930   O1        1 UIO1   0.0000
  1487 C2       5.5804  26.3269  32.4930   C2        1 UIO1   0.0000
  1488 H1       4.3006  27.9059  32.4930   H1        1 UIO1   0.0000
  1489 O3       2.4209  21.0721  31.4453   O3        1 UIO1   0.0000
  1490 C1       4.5224  25.2689  32.4930   C1        1 UIO1   0.0000
  1491 O1       4.9049  20.1696  32.4930   O1        1 UIO1   0.0000
  1492 Zr       1.3733  24.6041  32.4930   Zr        1 UIO1   0.0000
  1493 O1       1.3733  25.6514  30.5428   O1        1 UIO1   0.0000
  1494 Zr       1.3733  19.6354  32.4930   Zr        1 UIO1   0.0000
  1495 O1       1.3733  18.5881  30.5428   O1        1 UIO1   0.0000
  1496 C2       1.3733  17.9126  28.2858   C2        1 UIO1   0.0000
  1497 H1       1.3733  19.1924  26.7068   H1        1 UIO1   0.0000
  1498 C1       1.3733  18.9706  29.3439   C1        1 UIO1   0.0000
  1499 Zr       1.3733  22.1198  30.0086   Zr        1 UIO1   0.0000
  1500 O1       1.3733  24.0699  28.9613   O1        1 UIO1   0.0000
  1501 O1       1.3733  20.1696  28.9613   O1        1 UIO1   0.0000
  1502 H1       1.3733  16.3336  29.5657   H1        1 UIO1   0.0000
  1503 O3       2.4209  23.1674  31.4453   O3        1 UIO1   0.0000
  1504 O1       3.3234  25.6514  32.4930   O1        1 UIO1   0.0000
  1505 H1       7.1594  25.0471  32.4930   H1        1 UIO1   0.0000
  1506 O1       3.3234  18.5881  32.4930   O1        1 UIO1   0.0000
  1507 O1       4.9049  22.1198  30.5428   O1        1 UIO1   0.0000
  1508 O1       3.3234  22.1198  28.9613   O1        1 UIO1   0.0000
  1509 Zr      22.1198   1.3733  14.2309   Zr        1 UIO1   0.0000
  1510 O1      24.0699   1.3733  15.2782   O1        1 UIO1   0.0000
  1511 C2      26.3269   1.3733  15.9537   C2        1 UIO1   0.0000
  1512 H1      27.9059   1.3733  14.6738   H1        1 UIO1   0.0000
  1513 C1      25.2689   1.3733  14.8956   C1        1 UIO1   0.0000
  1514 O1      20.1696   1.3733  15.2782   O1        1 UIO1   0.0000
  1515 C2      17.9126   1.3733  15.9537   C2        1 UIO1   0.0000
  1516 H1      16.3336   1.3733  14.6738   H1        1 UIO1   0.0000
  1517 O3      23.1674   2.4209  12.7942   O3        1 UIO1   0.0000
  1518 C1      18.9706   1.3733  14.8956   C1        1 UIO1   0.0000
  1519 Zr      24.6041   1.3733  11.7465   Zr        1 UIO1   0.0000
  1520 O1      25.6514   3.3234  11.7465   O1        1 UIO1   0.0000
  1521 Zr      19.6354   1.3733  11.7465   Zr        1 UIO1   0.0000
  1522 O3      21.0721   2.4209  10.6988   O3        1 UIO1   0.0000
  1523 O1      18.5881   3.3234  11.7465   O1        1 UIO1   0.0000
  1524 Zr      22.1198   3.8576  11.7465   Zr        1 UIO1   0.0000
  1525 O1      22.1198   4.9049  13.6967   O1        1 UIO1   0.0000
  1526 O1      22.1198   4.9049   9.7963   O1        1 UIO1   0.0000
  1527 C2      22.1198   5.5804   7.5393   C2        1 UIO1   0.0000
  1528 H1      22.1198   4.3006   5.9603   H1        1 UIO1   0.0000
  1529 C1      22.1198   4.5224   8.5974   C1        1 UIO1   0.0000
  1530 Zr      22.1198   1.3733   9.2621   Zr        1 UIO1   0.0000
  1531 O1      22.1198   3.3234   8.2148   O1        1 UIO1   0.0000
  1532 H1      22.1198   7.1594   8.8192   H1        1 UIO1   0.0000
  1533 O3      23.1674   2.4209  10.6988   O3        1 UIO1   0.0000
  1534 O3      21.0721   2.4209  12.7942   O3        1 UIO1   0.0000
  1535 O1      22.1198   3.3234  15.2782   O1        1 UIO1   0.0000
  1536 O1      24.0699   4.9049  11.7465   O1        1 UIO1   0.0000
  1537 O1      20.1696   4.9049  11.7465   O1        1 UIO1   0.0000
  1538 O1      25.6514   1.3733   9.7963   O1        1 UIO1   0.0000
  1539 C2      26.3269   1.3733   7.5393   C2        1 UIO1   0.0000
  1540 H1      25.0471   1.3733   5.9603   H1        1 UIO1   0.0000
  1541 C1      25.2689   1.3733   8.5974   C1        1 UIO1   0.0000
  1542 O1      25.6514   1.3733  13.6967   O1        1 UIO1   0.0000
  1543 H1      25.0471   1.3733  17.5327   H1        1 UIO1   0.0000
  1544 O1      18.5881   1.3733  13.6967   O1        1 UIO1   0.0000
  1545 H1      19.1924   1.3733  17.5327   H1        1 UIO1   0.0000
  1546 O1      18.5881   1.3733   9.7963   O1        1 UIO1   0.0000
  1547 C2      17.9126   1.3733   7.5393   C2        1 UIO1   0.0000
  1548 H1      19.1924   1.3733   5.9603   H1        1 UIO1   0.0000
  1549 C1      18.9706   1.3733   8.5974   C1        1 UIO1   0.0000
  1550 O1      20.1696   1.3733   8.2148   O1        1 UIO1   0.0000
  1551 H1      16.3336   1.3733   8.8192   H1        1 UIO1   0.0000
  1552 O1      24.0699   1.3733   8.2148   O1        1 UIO1   0.0000
  1553 H1      27.9059   1.3733   8.8192   H1        1 UIO1   0.0000
  1554 Zr      24.6041   1.3733  32.4930   Zr        1 UIO1   0.0000
  1555 O1      25.6514   3.3234  32.4930   O1        1 UIO1   0.0000
  1556 C2      26.3269   5.5804  32.4930   C2        1 UIO1   0.0000
  1557 H1      25.0471   7.1594  32.4930   H1        1 UIO1   0.0000
  1558 C1      25.2689   4.5224  32.4930   C1        1 UIO1   0.0000
  1559 Zr      19.6354   1.3733  32.4930   Zr        1 UIO1   0.0000
  1560 O3      21.0721   2.4209  31.4453   O3        1 UIO1   0.0000
  1561 O1      18.5881   3.3234  32.4930   O1        1 UIO1   0.0000
  1562 C2      17.9126   5.5804  32.4930   C2        1 UIO1   0.0000
  1563 H1      19.1924   7.1594  32.4930   H1        1 UIO1   0.0000
  1564 C1      18.9706   4.5224  32.4930   C1        1 UIO1   0.0000
  1565 Zr      22.1198   3.8576  32.4930   Zr        1 UIO1   0.0000
  1566 O1      22.1198   4.9049  30.5428   O1        1 UIO1   0.0000
  1567 C2      22.1198   5.5804  28.2858   C2        1 UIO1   0.0000
  1568 H1      22.1198   4.3006  26.7068   H1        1 UIO1   0.0000
  1569 C1      22.1198   4.5224  29.3439   C1        1 UIO1   0.0000
  1570 Zr      22.1198   1.3733  30.0086   Zr        1 UIO1   0.0000
  1571 O1      22.1198   3.3234  28.9613   O1        1 UIO1   0.0000
  1572 H1      22.1198   7.1594  29.5657   H1        1 UIO1   0.0000
  1573 O3      23.1674   2.4209  31.4453   O3        1 UIO1   0.0000
  1574 O1      24.0699   4.9049  32.4930   O1        1 UIO1   0.0000
  1575 H1      27.9059   4.3006  32.4930   H1        1 UIO1   0.0000
  1576 O1      20.1696   4.9049  32.4930   O1        1 UIO1   0.0000
  1577 H1      16.3336   4.3006  32.4930   H1        1 UIO1   0.0000
  1578 O1      25.6514   1.3733  30.5428   O1        1 UIO1   0.0000
  1579 O1      18.5881   1.3733  30.5428   O1        1 UIO1   0.0000
  1580 O1      20.1696   1.3733  28.9613   O1        1 UIO1   0.0000
  1581 O1      24.0699   1.3733  28.9613   O1        1 UIO1   0.0000
  1582 Zr      22.1198  22.1198  14.2309   Zr        1 UIO1   0.0000
  1583 O1      24.0699  22.1198  15.2782   O1        1 UIO1   0.0000
  1584 C2      26.3269  22.1198  15.9537   C2        1 UIO1   0.0000
  1585 H1      27.9059  22.1198  14.6738   H1        1 UIO1   0.0000
  1586 O3      21.0721  21.0721  12.7942   O3        1 UIO1   0.0000
  1587 C1      25.2689  22.1198  14.8956   C1        1 UIO1   0.0000
  1588 O1      20.1696  22.1198  15.2782   O1        1 UIO1   0.0000
  1589 C2      17.9126  22.1198  15.9537   C2        1 UIO1   0.0000
  1590 H1      16.3336  22.1198  14.6738   H1        1 UIO1   0.0000
  1591 O3      23.1674  23.1674  12.7942   O3        1 UIO1   0.0000
  1592 C1      18.9706  22.1198  14.8956   C1        1 UIO1   0.0000
  1593 Zr      24.6041  22.1198  11.7465   Zr        1 UIO1   0.0000
  1594 O1      25.6514  24.0699  11.7465   O1        1 UIO1   0.0000
  1595 O3      23.1674  21.0721  10.6988   O3        1 UIO1   0.0000
  1596 O1      25.6514  20.1696  11.7465   O1        1 UIO1   0.0000
  1597 C2      26.3269  17.9126  11.7465   C2        1 UIO1   0.0000
  1598 H1      25.0471  16.3336  11.7465   H1        1 UIO1   0.0000
  1599 C1      25.2689  18.9706  11.7465   C1        1 UIO1   0.0000
  1600 Zr      19.6354  22.1198  11.7465   Zr        1 UIO1   0.0000
  1601 O1      18.5881  20.1696  11.7465   O1        1 UIO1   0.0000
  1602 O3      21.0721  23.1674  10.6988   O3        1 UIO1   0.0000
  1603 O1      18.5881  24.0699  11.7465   O1        1 UIO1   0.0000
  1604 C2      17.9126  26.3269  11.7465   C2        1 UIO1   0.0000
  1605 H1      19.1924  27.9059  11.7465   H1        1 UIO1   0.0000
  1606 C1      18.9706  25.2689  11.7465   C1        1 UIO1   0.0000
  1607 Zr      22.1198  24.6041  11.7465   Zr        1 UIO1   0.0000
  1608 O1      22.1198  25.6514  13.6967   O1        1 UIO1   0.0000
  1609 C2      22.1198  26.3269  15.9537   C2        1 UIO1   0.0000
  1610 H1      22.1198  25.0471  17.5327   H1        1 UIO1   0.0000
  1611 C1      22.1198  25.2689  14.8956   C1        1 UIO1   0.0000
  1612 O1      22.1198  25.6514   9.7963   O1        1 UIO1   0.0000
  1613 C2      22.1198  26.3269   7.5393   C2        1 UIO1   0.0000
  1614 H1      22.1198  25.0471   5.9603   H1        1 UIO1   0.0000
  1615 C1      22.1198  25.2689   8.5974   C1        1 UIO1   0.0000
  1616 Zr      22.1198  19.6354  11.7465   Zr        1 UIO1   0.0000
  1617 O1      22.1198  18.5881   9.7963   O1        1 UIO1   0.0000
  1618 C2      22.1198  17.9126   7.5393   C2        1 UIO1   0.0000
  1619 H1      22.1198  19.1924   5.9603   H1        1 UIO1   0.0000
  1620 C1      22.1198  18.9706   8.5974   C1        1 UIO1   0.0000
  1621 O1      22.1198  18.5881  13.6967   O1        1 UIO1   0.0000
  1622 Zr      22.1198  22.1198   9.2621   Zr        1 UIO1   0.0000
  1623 O1      22.1198  24.0699   8.2148   O1        1 UIO1   0.0000
  1624 H1      22.1198  27.9059   8.8192   H1        1 UIO1   0.0000
  1625 O3      21.0721  21.0721  10.6988   O3        1 UIO1   0.0000
  1626 O1      22.1198  20.1696   8.2148   O1        1 UIO1   0.0000
  1627 H1      22.1198  16.3336   8.8192   H1        1 UIO1   0.0000
  1628 O3      23.1674  23.1674  10.6988   O3        1 UIO1   0.0000
  1629 O1      22.1198  20.1696  15.2782   O1        1 UIO1   0.0000
  1630 O3      21.0721  23.1674  12.7942   O3        1 UIO1   0.0000
  1631 O1      22.1198  24.0699  15.2782   O1        1 UIO1   0.0000
  1632 H1      22.1198  27.9059  14.6738   H1        1 UIO1   0.0000
  1633 O3      23.1674  21.0721  12.7942   O3        1 UIO1   0.0000
  1634 O1      24.0699  25.6514  11.7465   O1        1 UIO1   0.0000
  1635 O1      20.1696  25.6514  11.7465   O1        1 UIO1   0.0000
  1636 H1      16.3336  25.0471  11.7465   H1        1 UIO1   0.0000
  1637 O1      20.1696  18.5881  11.7465   O1        1 UIO1   0.0000
  1638 O1      24.0699  18.5881  11.7465   O1        1 UIO1   0.0000
  1639 H1      27.9059  19.1924  11.7465   H1        1 UIO1   0.0000
  1640 O1      25.6514  22.1198   9.7963   O1        1 UIO1   0.0000
  1641 O1      25.6514  22.1198  13.6967   O1        1 UIO1   0.0000
  1642 H1      25.0471  22.1198  17.5327   H1        1 UIO1   0.0000
  1643 O1      18.5881  22.1198  13.6967   O1        1 UIO1   0.0000
  1644 H1      19.1924  22.1198  17.5327   H1        1 UIO1   0.0000
  1645 O1      18.5881  22.1198   9.7963   O1        1 UIO1   0.0000
  1646 C2      17.9126  22.1198   7.5393   C2        1 UIO1   0.0000
  1647 H1      19.1924  22.1198   5.9603   H1        1 UIO1   0.0000
  1648 C1      18.9706  22.1198   8.5974   C1        1 UIO1   0.0000
  1649 O1      20.1696  22.1198   8.2148   O1        1 UIO1   0.0000
  1650 H1      16.3336  22.1198   8.8192   H1        1 UIO1   0.0000
  1651 O1      24.0699  22.1198   8.2148   O1        1 UIO1   0.0000
  1652 Zr      24.6041  22.1198  32.4930   Zr        1 UIO1   0.0000
  1653 O1      25.6514  24.0699  32.4930   O1        1 UIO1   0.0000
  1654 C2      26.3269  26.3269  32.4930   C2        1 UIO1   0.0000
  1655 H1      25.0471  27.9059  32.4930   H1        1 UIO1   0.0000
  1656 O3      23.1674  21.0721  31.4453   O3        1 UIO1   0.0000
  1657 C1      25.2689  25.2689  32.4930   C1        1 UIO1   0.0000
  1658 O1      25.6514  20.1696  32.4930   O1        1 UIO1   0.0000
  1659 Zr      19.6354  22.1198  32.4930   Zr        1 UIO1   0.0000
  1660 O1      18.5881  20.1696  32.4930   O1        1 UIO1   0.0000
  1661 C2      17.9126  17.9126  32.4930   C2        1 UIO1   0.0000
  1662 H1      19.1924  16.3336  32.4930   H1        1 UIO1   0.0000
  1663 O3      21.0721  23.1674  31.4453   O3        1 UIO1   0.0000
  1664 C1      18.9706  18.9706  32.4930   C1        1 UIO1   0.0000
  1665 O1      18.5881  24.0699  32.4930   O1        1 UIO1   0.0000
  1666 C2      17.9126  26.3269  32.4930   C2        1 UIO1   0.0000
  1667 H1      19.1924  27.9059  32.4930   H1        1 UIO1   0.0000
  1668 C1      18.9706  25.2689  32.4930   C1        1 UIO1   0.0000
  1669 Zr      22.1198  24.6041  32.4930   Zr        1 UIO1   0.0000
  1670 O1      22.1198  25.6514  30.5428   O1        1 UIO1   0.0000
  1671 C2      22.1198  26.3269  28.2858   C2        1 UIO1   0.0000
  1672 H1      22.1198  25.0471  26.7068   H1        1 UIO1   0.0000
  1673 C1      22.1198  25.2689  29.3439   C1        1 UIO1   0.0000
  1674 Zr      22.1198  19.6354  32.4930   Zr        1 UIO1   0.0000
  1675 O1      22.1198  18.5881  30.5428   O1        1 UIO1   0.0000
  1676 C2      22.1198  17.9126  28.2858   C2        1 UIO1   0.0000
  1677 H1      22.1198  19.1924  26.7068   H1        1 UIO1   0.0000
  1678 C1      22.1198  18.9706  29.3439   C1        1 UIO1   0.0000
  1679 Zr      22.1198  22.1198  30.0086   Zr        1 UIO1   0.0000
  1680 O1      22.1198  24.0699  28.9613   O1        1 UIO1   0.0000
  1681 H1      22.1198  27.9059  29.5657   H1        1 UIO1   0.0000
  1682 O3      21.0721  21.0721  31.4453   O3        1 UIO1   0.0000
  1683 O1      22.1198  20.1696  28.9613   O1        1 UIO1   0.0000
  1684 H1      22.1198  16.3336  29.5657   H1        1 UIO1   0.0000
  1685 O3      23.1674  23.1674  31.4453   O3        1 UIO1   0.0000
  1686 O1      24.0699  25.6514  32.4930   O1        1 UIO1   0.0000
  1687 H1      27.9059  25.0471  32.4930   H1        1 UIO1   0.0000
  1688 O1      20.1696  25.6514  32.4930   O1        1 UIO1   0.0000
  1689 H1      16.3336  25.0471  32.4930   H1        1 UIO1   0.0000
  1690 O1      20.1696  18.5881  32.4930   O1        1 UIO1   0.0000
  1691 H1      16.3336  19.1924  32.4930   H1        1 UIO1   0.0000
  1692 O1      24.0699  18.5881  32.4930   O1        1 UIO1   0.0000
  1693 O1      25.6514  22.1198  30.5428   O1        1 UIO1   0.0000
  1694 C2      26.3269  22.1198  28.2858   C2        1 UIO1   0.0000
  1695 H1      25.0471  22.1198  26.7068   H1        1 UIO1   0.0000
  1696 C1      25.2689  22.1198  29.3439   C1        1 UIO1   0.0000
  1697 O1      18.5881  22.1198  30.5428   O1        1 UIO1   0.0000
  1698 C2      17.9126  22.1198  28.2858   C2        1 UIO1   0.0000
  1699 H1      19.1924  22.1198  26.7068   H1        1 UIO1   0.0000
  1700 C1      18.9706  22.1198  29.3439   C1        1 UIO1   0.0000
  1701 O1      20.1696  22.1198  28.9613   O1        1 UIO1   0.0000
  1702 H1      16.3336  22.1198  29.5657   H1        1 UIO1   0.0000
  1703 O1      24.0699  22.1198  28.9613   O1        1 UIO1   0.0000
  1704 H1      27.9059  22.1198  29.5657   H1        1 UIO1   0.0000
  1705 H7      15.2782  13.6967  12.7065   H7        1 UIO1   0.0000
  1706 H7      18.5881  20.1696  12.7065   H7        1 UIO1   0.0000
  1707 O7      14.6052  16.8517  12.7955   O7        1 UIO1   0.0000
  1708 H7      14.6052  16.8517  13.7555   H7        1 UIO1   0.0000
  1709 O7      19.2611  17.0146  12.7955   O7        1 UIO1   0.0000
  1710 H7      19.2611  17.0146  13.7555   H7        1 UIO1   0.0000
  1711 H7      15.2782   9.7963  12.7065   H7        1 UIO1   0.0000
  1712 H7      18.1724   2.6034  12.2265   H7        1 UIO1   0.0000
  1713 O7      14.6052   6.6413  12.7955   O7        1 UIO1   0.0000
  1714 H7      14.6052   6.6413  13.7555   H7        1 UIO1   0.0000
  1715 O7      19.2611   6.4784  12.7955   O7        1 UIO1   0.0000
  1716 H7      18.8454   5.7584  13.2755   H7        1 UIO1   0.0000
  1717 H7       8.2148  13.6967  12.7065   H7        1 UIO1   0.0000
  1718 H7       4.9049  20.1696  12.7065   H7        1 UIO1   0.0000
  1719 O7       8.8878  16.8517  12.7955   O7        1 UIO1   0.0000
  1720 H7       8.8878  16.8517  13.7555   H7        1 UIO1   0.0000
  1721 O7       4.2319  17.0146  12.7955   O7        1 UIO1   0.0000
  1722 H7       4.2319  17.0146  13.7555   H7        1 UIO1   0.0000
  1723 H7       8.2148  13.6967  33.4530   H7        1 UIO1   0.0000
  1724 H7       4.9049  20.1696  33.4530   H7        1 UIO1   0.0000
  1725 O7      10.7048  16.8517  33.5420   O7        1 UIO1   0.0000
  1726 H7      10.7048  16.8517  34.5020   H7        1 UIO1   0.0000
  1727 O7       2.4149  17.0146  33.5420   O7        1 UIO1   0.0000
  1728 H7       2.4149  17.0146  34.5020   H7        1 UIO1   0.0000
  1729 H7       8.2148  11.7465  31.5028   H7        1 UIO1   0.0000
  1730 H7       3.3234  11.7465  26.6114   H7        1 UIO1   0.0000
  1731 O7       7.9794  11.7465  27.9123   O7        1 UIO1   0.0000
  1732 H7       7.9794  11.7465  28.8723   H7        1 UIO1   0.0000
  1733 O7       5.8134  10.1730  25.1189   O7        1 UIO1   0.0000
  1734 H7       5.8134  10.1730  26.0789   H7        1 UIO1   0.0000
  1735 H7      11.7465  28.9613  10.7563   H7        1 UIO1   0.0000
  1736 H7      12.5779  25.6514   3.8034   H7        1 UIO1   0.0000
  1737 O7      11.7465  30.5428   6.1168   O7        1 UIO1   0.0000
  1738 H7      12.5779  30.5428   6.5968   H7        1 UIO1   0.0000
  1739 O7      11.7465  24.0699   7.0029   O7        1 UIO1   0.0000
  1740 H7      12.5779  24.0699   7.4829   H7        1 UIO1   0.0000
  1741 H7      28.5456   9.0763  11.2665   H7        1 UIO1   0.0000
  1742 H7      25.2357   2.6034  12.2265   H7        1 UIO1   0.0000
  1743 O7      29.6343   6.6413  12.7955   O7        1 UIO1   0.0000
  1744 H7      29.2186   5.9213  13.2755   H7        1 UIO1   0.0000
  1745 O7      24.9784   6.4784  12.7955   O7        1 UIO1   0.0000
  1746 H7      24.5627   5.7584  13.2755   H7        1 UIO1   0.0000
  1747 H7      32.9087  15.9982  14.1767   H7        1 UIO1   0.0000
  1748 H7      32.4930  18.5881  21.1296   H7        1 UIO1   0.0000
  1749 O7      30.6761  13.6967  16.3272   O7        1 UIO1   0.0000
  1750 H7      30.2604  12.9767  15.8472   H7        1 UIO1   0.0000
  1751 O7      30.6761  20.1696  17.5391   O7        1 UIO1   0.0000
  1752 H7      30.6761  20.1696  18.4991   H7        1 UIO1   0.0000
  1753 H7      32.9087   8.9348  14.1767   H7        1 UIO1   0.0000
  1754 H7      32.9087   4.1849  20.6496   H7        1 UIO1   0.0000
  1755 O7      30.6761   9.7963  16.3272   O7        1 UIO1   0.0000
  1756 H7      30.2604   9.0763  15.8472   H7        1 UIO1   0.0000
  1757 O7      33.4015   1.7499  17.5391   O7        1 UIO1   0.0000
  1758 H7      33.8172   1.0299  17.0591   H7        1 UIO1   0.0000
  1759 H7      28.9613  13.6967  33.4530   H7        1 UIO1   0.0000
  1760 H7      25.6514  20.1696  33.4530   H7        1 UIO1   0.0000
  1761 O7      30.5428  15.2782  34.5910   O7        1 UIO1   0.0000
  1762 H7      30.5428  15.2782  35.5510   H7        1 UIO1   0.0000
  1763 O7      23.1614  17.0146  33.5420   O7        1 UIO1   0.0000
  1764 H7      23.1614  17.0146  34.5020   H7        1 UIO1   0.0000
  1765 H7      28.9613  30.5428  12.7065   H7        1 UIO1   0.0000
  1766 H7      25.6514  24.0699  12.7065   H7        1 UIO1   0.0000
  1767 O7      29.6343  27.3878  12.7955   O7        1 UIO1   0.0000
  1768 H7      29.6343  27.3878  13.7555   H7        1 UIO1   0.0000
  1769 O7      24.9784  27.2249  12.7955   O7        1 UIO1   0.0000
  1770 H7      24.9784  27.2249  13.7555   H7        1 UIO1   0.0000
  1771 H7      32.4930  28.9613  10.7563   H7        1 UIO1   0.0000
  1772 H7      31.6616  25.6514   3.8034   H7        1 UIO1   0.0000
  1773 O7      33.4015  32.1163   7.1658   O7        1 UIO1   0.0000
  1774 H7      33.4015  32.1163   8.1258   H7        1 UIO1   0.0000
  1775 O7      30.6761  24.0699   5.9539   O7        1 UIO1   0.0000
  1776 H7      31.5075  24.0699   6.4339   H7        1 UIO1   0.0000
  1777 H7      32.4930  28.9613  14.6567   H7        1 UIO1   0.0000
  1778 H7      32.4930  25.6514  21.1296   H7        1 UIO1   0.0000
  1779 O7      33.4015  32.1163  16.3272   O7        1 UIO1   0.0000
  1780 H7      33.4015  32.1163  17.2872   H7        1 UIO1   0.0000
  1781 O7      30.6761  24.0699  17.5391   O7        1 UIO1   0.0000
  1782 H7      30.6761  24.0699  18.4991   H7        1 UIO1   0.0000
  1783 H7      13.6967   1.3733  26.6114   H7        1 UIO1   0.0000
  1784 H7      18.1724   0.6533  31.0228   H7        1 UIO1   0.0000
  1785 O7      17.0951   1.3733  25.1189   O7        1 UIO1   0.0000
  1786 H7      16.6794   0.6533  25.5989   H7        1 UIO1   0.0000
  1787 O7      21.9865   1.3733  27.9123   O7        1 UIO1   0.0000
  1788 H7      21.5708   0.6533  28.3923   H7        1 UIO1   0.0000
  1789 H7       9.7963  22.1198  26.6114   H7        1 UIO1   0.0000
  1790 H7       4.9049  22.1198  31.5028   H7        1 UIO1   0.0000
  1791 O7       6.3979  22.1198  23.0209   O7        1 UIO1   0.0000
  1792 H7       6.3979  22.1198  23.9809   H7        1 UIO1   0.0000
  1793 O7       5.1403  22.1198  27.9123   O7        1 UIO1   0.0000
  1794 H7       5.1403  22.1198  28.8723   H7        1 UIO1   0.0000
  1795 H7       8.2148  24.0699  23.0798   H7        1 UIO1   0.0000
  1796 H7       4.9049  30.5428  23.0798   H7        1 UIO1   0.0000
  1797 O7       8.8878  27.2249  23.1688   O7        1 UIO1   0.0000
  1798 H7       8.8878  27.2249  24.1288   H7        1 UIO1   0.0000
  1799 O7       4.2319  27.3878  23.1688   O7        1 UIO1   0.0000
  1800 H7       4.2319  27.3878  24.1288   H7        1 UIO1   0.0000
  1801 H7       8.2148  22.1198  21.1296   H7        1 UIO1   0.0000
  1802 H7       3.3234  22.1198  16.2382   H7        1 UIO1   0.0000
  1803 O7       7.9794  22.1198  17.5391   O7        1 UIO1   0.0000
  1804 H7       7.9794  22.1198  18.4991   H7        1 UIO1   0.0000
  1805 O7       6.7218  22.1198  12.6477   O7        1 UIO1   0.0000
  1806 H7       6.7218  22.1198  13.6077   H7        1 UIO1   0.0000
  1807 H7      30.1271   0.6533  26.1314   H7        1 UIO1   0.0000
  1808 H7      25.2357   0.6533  31.0228   H7        1 UIO1   0.0000
  1809 O7      27.1444   1.3733  25.1189   O7        1 UIO1   0.0000
  1810 H7      26.7287   0.6533  25.5989   H7        1 UIO1   0.0000
  1811 O7      25.8868   1.3733  27.9123   O7        1 UIO1   0.0000
  1812 H7      25.4711   0.6533  28.3923   H7        1 UIO1   0.0000
  1813 H7      31.3742  22.1198   5.3849   H7        1 UIO1   0.0000
  1814 H7      25.6514  22.1198  10.7563   H7        1 UIO1   0.0000
  1815 O7      27.1444  22.1198   4.3724   O7        1 UIO1   0.0000
  1816 H7      27.9758  22.1198   4.8524   H7        1 UIO1   0.0000
  1817 O7      25.8868  22.1198   7.1658   O7        1 UIO1   0.0000
  1818 H7      25.8868  22.1198   8.1258   H7        1 UIO1   0.0000
  1819 H7       1.3733  28.9613   4.2834   H7        1 UIO1   0.0000
  1820 H7       1.3733  25.6514  10.7563   H7        1 UIO1   0.0000
  1821 O7       0.4648  32.1163   5.9539   O7        1 UIO1   0.0000
  1822 H7      -0.3665  32.1163   6.4339   H7        1 UIO1   0.0000
  1823 O7      -0.4436  24.0699   9.2638   O7        1 UIO1   0.0000
  1824 H7      -0.4436  24.0699  10.2238   H7        1 UIO1   0.0000
  1825 H7       1.3733  28.9613  25.0299   H7        1 UIO1   0.0000
  1826 H7       1.3733  25.6514  31.5028   H7        1 UIO1   0.0000
  1827 O7       0.4648  32.1163  26.7004   O7        1 UIO1   0.0000
  1828 H7       0.4648  32.1163  27.6604   H7        1 UIO1   0.0000
  1829 O7      -0.4436  24.0699  30.0103   O7        1 UIO1   0.0000
  1830 H7      -0.4436  24.0699  30.9703   H7        1 UIO1   0.0000
  1831 H7      21.7041  14.5582  19.6896   H7        1 UIO1   0.0000
  1832 H7      22.1198  18.5881  14.6567   H7        1 UIO1   0.0000
  1833 O7      23.9367  13.6967  17.5391   O7        1 UIO1   0.0000
  1834 H7      23.5210  12.9767  17.0591   H7        1 UIO1   0.0000
  1835 O7      23.9367  20.1696  16.3272   O7        1 UIO1   0.0000
  1836 H7      23.9367  20.1696  17.2872   H7        1 UIO1   0.0000
  1837 H7      21.7041   7.4948  20.6496   H7        1 UIO1   0.0000
  1838 H7      21.7041   4.1849  14.1767   H7        1 UIO1   0.0000
  1839 O7      23.9367   9.7963  17.5391   O7        1 UIO1   0.0000
  1840 H7      23.5210   9.0763  17.0591   H7        1 UIO1   0.0000
  1841 O7      23.9367   3.3234  16.3272   O7        1 UIO1   0.0000
  1842 H7      23.5210   2.6034  16.8072   H7        1 UIO1   0.0000
@<TRIPOS>BOND
     1     1     2   un
     2     1     6   un
     3     1     8   un
     4     1    12   un
     5     1    57   un
     6     1    60   un
     7     1    61   un
     8     1    64   un
     9     2     7   un
    10     3     4   un
    11     3     7   un
    12     3    77   un
    13     4     5   un
    14     4   108   un
    15     6    18   un
    16     6    37   un
    17     7    76   un
    18     8    13   un
    19     9    10   un
    20     9    13   un
    21     9    80   un
    22    10    11   un
    23    10   105   un
    24    12    14   un
    25    12    26   un
    26    13    79   un
    27    14    15   un
    28    14    16   un
    29    14    17   un
    30    14    56   un
    31    14    64   un
    32    14    71   un
    33    14    76   un
    34    15  1705   un
    35    16    37   un
    36    16    48   un
    37    17  1711   un
    38    18    19   un
    39    18    23   un
    40    18    25   un
    41    18    52   un
    42    18    60   un
    43    18    79   un
    44    18    82   un
    45    19    24   un
    46    20    21   un
    47    20    24   un
    48    20    68   un
    49    21    22   un
    50    21   110   un
    51    23    26   un
    52    23    48   un
    53    24    67   un
    54    25  1717   un
    55    26    27   un
    56    26    32   un
    57    26    56   un
    58    26    60   un
    59    26    65   un
    60    26    66   un
    61    27    31   un
    62    28    29   un
    63    28    31   un
    64    28    62   un
    65    29    30   un
    66    29    98   un
    67    31    61   un
    68    32    36   un
    69    33    34   un
    70    33    36   un
    71    33    50   un
    72    34    35   un
    73    34    99   un
    74    36    49   un
    75    37    38   un
    76    37    43   un
    77    37    52   un
    78    37    64   un
    79    37    67   un
    80    37    70   un
    81    38    42   un
    82    39    40   un
    83    39    42   un
    84    39    54   un
    85    40    41   un
    86    40   100   un
    87    42    53   un
    88    43    47   un
    89    44    45   un
    90    44    47   un
    91    44    58   un
    92    45    46   un
    93    45    97   un
    94    47    57   un
    95    48    49   un
    96    48    52   un
    97    48    53   un
    98    48    56   un
    99    48    87   un
   100    48    90   un
   101    50    51   un
   102    50    96   un
   103    54    55   un
   104    54    93   un
   105    58    59   un
   106    58    94   un
   107    62    63   un
   108    62    95   un
   109    65  1707   un
   110    66  1719   un
   111    68    69   un
   112    68   109   un
   113    70  1713   un
   114    71    75   un
   115    72    73   un
   116    72    75   un
   117    72    91   un
   118    73    74   un
   119    73   102   un
   120    75    90   un
   121    77    78   un
   122    77   103   un
   123    80    81   un
   124    80   104   un
   125    82    86   un
   126    83    84   un
   127    83    86   un
   128    83    88   un
   129    84    85   un
   130    84   101   un
   131    86    87   un
   132    88    89   un
   133    88   106   un
   134    91    92   un
   135    91   107   un
   136    93   526   un
   137    93   527   un
   138    94   579   un
   139    94   580   un
   140    95   742   un
   141    95   743   un
   142    96   664   un
   143    96   665   un
   144    97   579   un
   145    97   584   un
   146    98   742   un
   147    98   754   un
   148    99   664   un
   149    99   668   un
   150   100   526   un
   151   100   531   un
   152   101   965   un
   153   101   966   un
   154   102  1133   un
   155   102  1134   un
   156   103  1266   un
   157   103  1270   un
   158   104  1062   un
   159   104  1067   un
   160   105  1062   un
   161   105  1063   un
   162   106   965   un
   163   106  1002   un
   164   107  1133   un
   165   107  1186   un
   166   108  1266   un
   167   108  1267   un
   168   109  1390   un
   169   109  1391   un
   170   110  1390   un
   171   110  1409   un
   172   111   112   un
   173   111   116   un
   174   111   118   un
   175   111   151   un
   176   111   162   un
   177   112   117   un
   178   113   114   un
   179   113   117   un
   180   113   153   un
   181   114   115   un
   182   114   183   un
   183   116   137   un
   184   116   143   un
   185   117   152   un
   186   118   122   un
   187   119   120   un
   188   119   122   un
   189   119   160   un
   190   120   121   un
   191   120   182   un
   192   122   159   un
   193   123   124   un
   194   123   128   un
   195   123   130   un
   196   123   147   un
   197   123   167   un
   198   124   129   un
   199   125   126   un
   200   125   129   un
   201   125   157   un
   202   126   127   un
   203   126   181   un
   204   128   131   un
   205   128   143   un
   206   129   156   un
   207   130  1723   un
   208   131   132   un
   209   131   151   un
   210   131   152   un
   211   131   155   un
   212   132   136   un
   213   133   134   un
   214   133   136   un
   215   133   145   un
   216   134   135   un
   217   134   174   un
   218   136   144   un
   219   137   138   un
   220   137   147   un
   221   137   156   un
   222   137   159   un
   223   138   142   un
   224   139   140   un
   225   139   142   un
   226   139   149   un
   227   140   141   un
   228   140   175   un
   229   142   148   un
   230   143   144   un
   231   143   147   un
   232   143   148   un
   233   143   151   un
   234   143   168   un
   235   143   169   un
   236   145   146   un
   237   145   173   un
   238   149   150   un
   239   149   172   un
   240   153   154   un
   241   153   179   un
   242   155  1725   un
   243   157   158   un
   244   157   178   un
   245   160   161   un
   246   160   180   un
   247   162   166   un
   248   163   164   un
   249   163   166   un
   250   163   170   un
   251   164   165   un
   252   164   176   un
   253   166   169   un
   254   167  1729   un
   255   168  1731   un
   256   170   171   un
   257   170   177   un
   258   172   575   un
   259   172   576   un
   260   173   746   un
   261   173   747   un
   262   174   746   un
   263   174   757   un
   264   175   575   un
   265   175   588   un
   266   176  1198   un
   267   176  1199   un
   268   177  1198   un
   269   177  1264   un
   270   178  1420   un
   271   178  1421   un
   272   179  1661   un
   273   179  1662   un
   274   180  1562   un
   275   180  1563   un
   276   181  1420   un
   277   181  1433   un
   278   182  1562   un
   279   182  1577   un
   280   183  1661   un
   281   183  1691   un
   282   184   185   un
   283   184   189   un
   284   184   191   un
   285   184   219   un
   286   184   222   un
   287   185   190   un
   288   186   187   un
   289   186   190   un
   290   186   235   un
   291   187   188   un
   292   187   260   un
   293   189   203   un
   294   189   209   un
   295   190   234   un
   296   191   195   un
   297   192   193   un
   298   192   195   un
   299   192   238   un
   300   193   194   un
   301   193   257   un
   302   195   237   un
   303   196   197   un
   304   196   198   un
   305   196   222   un
   306   196   229   un
   307   196   234   un
   308   197   209   un
   309   197   216   un
   310   198   202   un
   311   199   200   un
   312   199   202   un
   313   199   227   un
   314   200   201   un
   315   200   264   un
   316   202   226   un
   317   203   204   un
   318   203   217   un
   319   203   237   un
   320   203   240   un
   321   204   208   un
   322   205   206   un
   323   205   208   un
   324   205   224   un
   325   206   207   un
   326   206   263   un
   327   208   223   un
   328   209   210   un
   329   209   211   un
   330   209   217   un
   331   209   222   un
   332   209   223   un
   333   209   226   un
   334   210  1735   un
   335   211   215   un
   336   212   213   un
   337   212   215   un
   338   212   220   un
   339   213   214   un
   340   213   252   un
   341   215   219   un
   342   216   217   un
   343   216   218   un
   344   216   245   un
   345   216   248   un
   346   218  1737   un
   347   220   221   un
   348   220   251   un
   349   224   225   un
   350   224   261   un
   351   227   228   un
   352   227   262   un
   353   229   233   un
   354   230   231   un
   355   230   233   un
   356   230   249   un
   357   231   232   un
   358   231   254   un
   359   233   248   un
   360   235   236   un
   361   235   255   un
   362   238   239   un
   363   238   256   un
   364   240   244   un
   365   241   242   un
   366   241   244   un
   367   241   246   un
   368   242   243   un
   369   242   253   un
   370   244   245   un
   371   246   247   un
   372   246   258   un
   373   249   250   un
   374   249   259   un
   375   251   737   un
   376   251   738   un
   377   252   737   un
   378   252   751   un
   379   253  1078   un
   380   253  1079   un
   381   254  1284   un
   382   254  1285   un
   383   255  1371   un
   384   255  1375   un
   385   256  1117   un
   386   256  1123   un
   387   257  1117   un
   388   257  1118   un
   389   258  1078   un
   390   258  1093   un
   391   259  1284   un
   392   259  1314   un
   393   260  1371   un
   394   260  1372   un
   395   261  1445   un
   396   261  1446   un
   397   262  1604   un
   398   262  1605   un
   399   263  1445   un
   400   263  1476   un
   401   264  1604   un
   402   264  1636   un
   403   265   266   un
   404   265   267   un
   405   265   295   un
   406   266   278   un
   407   266   284   un
   408   267   271   un
   409   268   269   un
   410   268   271   un
   411   268   293   un
   412   269   270   un
   413   269   320   un
   414   271   292   un
   415   272   273   un
   416   272   285   un
   417   272   300   un
   418   273   277   un
   419   274   275   un
   420   274   277   un
   421   274   290   un
   422   275   276   un
   423   275   319   un
   424   277   289   un
   425   278   279   un
   426   278   285   un
   427   278   289   un
   428   278   292   un
   429   279   283   un
   430   280   281   un
   431   280   283   un
   432   280   287   un
   433   281   282   un
   434   281   312   un
   435   283   286   un
   436   284   285   un
   437   284   286   un
   438   284   305   un
   439   284   308   un
   440   287   288   un
   441   287   311   un
   442   290   291   un
   443   290   317   un
   444   293   294   un
   445   293   318   un
   446   295   299   un
   447   296   297   un
   448   296   299   un
   449   296   309   un
   450   297   298   un
   451   297   314   un
   452   299   308   un
   453   300   304   un
   454   301   302   un
   455   301   304   un
   456   301   306   un
   457   302   303   un
   458   302   313   un
   459   304   305   un
   460   306   307   un
   461   306   315   un
   462   309   310   un
   463   309   316   un
   464   311   733   un
   465   311   734   un
   466   312   733   un
   467   312   760   un
   468   313  1096   un
   469   313  1097   un
   470   314  1324   un
   471   314  1325   un
   472   315  1096   un
   473   315  1121   un
   474   316  1324   un
   475   316  1369   un
   476   317  1487   un
   477   317  1488   un
   478   318  1666   un
   479   318  1667   un
   480   319  1487   un
   481   319  1505   un
   482   320  1666   un
   483   320  1689   un
   484   321   322   un
   485   321   323   un
   486   321   358   un
   487   321   359   un
   488   321   360   un
   489   322   328   un
   490   322   343   un
   491   323   327   un
   492   324   325   un
   493   324   327   un
   494   324   366   un
   495   325   326   un
   496   325   382   un
   497   327   365   un
   498   328   329   un
   499   328   330   un
   500   328   331   un
   501   328   354   un
   502   328   359   un
   503   328   365   un
   504   328   368   un
   505   329  1741   un
   506   330   336   un
   507   330   350   un
   508   331   335   un
   509   332   333   un
   510   332   335   un
   511   332   362   un
   512   333   334   un
   513   333   385   un
   514   335   361   un
   515   336   337   un
   516   336   338   un
   517   336   359   un
   518   336   361   un
   519   337  1747   un
   520   338   342   un
   521   339   340   un
   522   339   342   un
   523   339   352   un
   524   340   341   un
   525   340   378   un
   526   342   351   un
   527   343   344   un
   528   343   349   un
   529   343   354   un
   530   343   364   un
   531   344   348   un
   532   345   346   un
   533   345   348   un
   534   345   356   un
   535   346   347   un
   536   346   379   un
   537   348   355   un
   538   349  1753   un
   539   350   351   un
   540   350   354   un
   541   350   355   un
   542   350   373   un
   543   352   353   un
   544   352   377   un
   545   356   357   un
   546   356   376   un
   547   358  1755   un
   548   360  1749   un
   549   362   363   un
   550   362   384   un
   551   364  1743   un
   552   366   367   un
   553   366   381   un
   554   368   372   un
   555   369   370   un
   556   369   372   un
   557   369   374   un
   558   370   371   un
   559   370   380   un
   560   372   373   un
   561   374   375   un
   562   374   383   un
   563   376   810   un
   564   376   811   un
   565   377   880   un
   566   377   881   un
   567   378   880   un
   568   378   884   un
   569   379   810   un
   570   379   815   un
   571   380  1128   un
   572   380  1129   un
   573   381  1258   un
   574   381  1272   un
   575   382  1258   un
   576   382  1259   un
   577   383  1128   un
   578   383  1184   un
   579   384  1597   un
   580   384  1598   un
   581   385  1597   un
   582   385  1639   un
   583   386   387   un
   584   386   391   un
   585   386   393   un
   586   386   410   un
   587   386   418   un
   588   387   392   un
   589   388   389   un
   590   388   392   un
   591   388   416   un
   592   389   390   un
   593   389   433   un
   594   391   394   un
   595   391   406   un
   596   392   415   un
   597   393  1759   un
   598   394   395   un
   599   394   414   un
   600   395   399   un
   601   396   397   un
   602   396   399   un
   603   396   408   un
   604   397   398   un
   605   397   428   un
   606   399   407   un
   607   400   401   un
   608   400   410   un
   609   400   415   un
   610   401   405   un
   611   402   403   un
   612   402   405   un
   613   402   412   un
   614   403   404   un
   615   403   429   un
   616   405   411   un
   617   406   407   un
   618   406   410   un
   619   406   411   un
   620   406   423   un
   621   408   409   un
   622   408   427   un
   623   412   413   un
   624   412   426   un
   625   414  1761   un
   626   416   417   un
   627   416   432   un
   628   418   422   un
   629   419   420   un
   630   419   422   un
   631   419   424   un
   632   420   421   un
   633   420   430   un
   634   422   423   un
   635   424   425   un
   636   424   431   un
   637   426   837   un
   638   426   838   un
   639   427   926   un
   640   427   927   un
   641   428   926   un
   642   428   934   un
   643   429   837   un
   644   429   845   un
   645   430  1193   un
   646   430  1194   un
   647   431  1193   un
   648   431  1262   un
   649   432  1556   un
   650   432  1557   un
   651   433  1556   un
   652   433  1575   un
   653   434   435   un
   654   434   436   un
   655   434   449   un
   656   435   441   un
   657   435   443   un
   658   436   440   un
   659   437   438   un
   660   437   440   un
   661   437   452   un
   662   438   439   un
   663   438   464   un
   664   440   451   un
   665   441   442   un
   666   441   447   un
   667   441   451   un
   668   441   454   un
   669   442  1765   un
   670   443   444   un
   671   443   445   un
   672   443   447   un
   673   443   450   un
   674   444  1771   un
   675   445  1777   un
   676   446   447   un
   677   446   448   un
   678   446   459   un
   679   448  1773   un
   680   449  1779   un
   681   450  1767   un
   682   452   453   un
   683   452   463   un
   684   454   458   un
   685   455   456   un
   686   455   458   un
   687   455   460   un
   688   456   457   un
   689   456   462   un
   690   458   459   un
   691   460   461   un
   692   460   465   un
   693   462  1279   un
   694   462  1280   un
   695   463  1363   un
   696   463  1377   un
   697   464  1363   un
   698   464  1364   un
   699   465  1279   un
   700   465  1312   un
   701   466   467   un
   702   466   479   un
   703   466   486   un
   704   467   471   un
   705   468   469   un
   706   468   471   un
   707   468   484   un
   708   469   470   un
   709   469   499   un
   710   471   483   un
   711   472   473   un
   712   472   479   un
   713   472   483   un
   714   473   477   un
   715   474   475   un
   716   474   477   un
   717   474   481   un
   718   475   476   un
   719   475   495   un
   720   477   480   un
   721   478   479   un
   722   478   480   un
   723   478   491   un
   724   481   482   un
   725   481   494   un
   726   484   485   un
   727   484   498   un
   728   486   490   un
   729   487   488   un
   730   487   490   un
   731   487   492   un
   732   488   489   un
   733   488   496   un
   734   490   491   un
   735   492   493   un
   736   492   497   un
   737   494   919   un
   738   494   920   un
   739   495   919   un
   740   495   937   un
   741   496  1319   un
   742   496  1320   un
   743   497  1319   un
   744   497  1367   un
   745   498  1654   un
   746   498  1655   un
   747   499  1654   un
   748   499  1687   un
   749   500   501   un
   750   500   506   un
   751   500   510   un
   752   500   529   un
   753   500   530   un
   754   501   505   un
   755   502   503   un
   756   502   505   un
   757   502   539   un
   758   503   504   un
   759   503   547   un
   760   505   538   un
   761   506   511   un
   762   507   508   un
   763   507   511   un
   764   507   542   un
   765   508   509   un
   766   508   546   un
   767   510   512   un
   768   510   524   un
   769   511   541   un
   770   512   513   un
   771   512   538   un
   772   513   517   un
   773   514   515   un
   774   514   517   un
   775   514   533   un
   776   515   516   un
   777   515   550   un
   778   517   532   un
   779   518   519   un
   780   518   529   un
   781   518   541   un
   782   519   523   un
   783   520   521   un
   784   520   523   un
   785   520   536   un
   786   521   522   un
   787   521   551   un
   788   523   535   un
   789   524   525   un
   790   524   529   un
   791   524   532   un
   792   524   535   un
   793   525   528   un
   794   526   528   un
   795   528   530   un
   796   533   534   un
   797   533   549   un
   798   536   537   un
   799   536   548   un
   800   539   540   un
   801   539   544   un
   802   542   543   un
   803   542   545   un
   804   544  1547   un
   805   544  1551   un
   806   545  1411   un
   807   545  1417   un
   808   546  1411   un
   809   546  1412   un
   810   547  1547   un
   811   547  1548   un
   812   548   975   un
   813   548   976   un
   814   549  1148   un
   815   549  1149   un
   816   550  1148   un
   817   550  1180   un
   818   551   975   un
   819   551  1000   un
   820   552   553   un
   821   552   554   un
   822   552   558   un
   823   552   586   un
   824   552   587   un
   825   553  1783   un
   826   554   559   un
   827   555   556   un
   828   555   559   un
   829   555   602   un
   830   556   557   un
   831   556   618   un
   832   558   560   un
   833   558   573   un
   834   559   601   un
   835   560   561   un
   836   560   585   un
   837   560   595   un
   838   560   600   un
   839   561   565   un
   840   562   563   un
   841   562   565   un
   842   562   590   un
   843   563   564   un
   844   563   623   un
   845   565   589   un
   846   566   567   un
   847   566   568   un
   848   566   586   un
   849   566   601   un
   850   566   604   un
   851   567   573   un
   852   567   582   un
   853   568   572   un
   854   569   570   un
   855   569   572   un
   856   569   593   un
   857   570   571   un
   858   570   624   un
   859   572   592   un
   860   573   574   un
   861   573   578   un
   862   573   585   un
   863   573   586   un
   864   573   589   un
   865   573   592   un
   866   574   577   un
   867   575   577   un
   868   577   587   un
   869   578   581   un
   870   579   581   un
   871   581   583   un
   872   582   583   un
   873   582   585   un
   874   582   609   un
   875   582   612   un
   876   590   591   un
   877   590   622   un
   878   593   594   un
   879   593   621   un
   880   595   599   un
   881   596   597   un
   882   596   599   un
   883   596   613   un
   884   597   598   un
   885   597   616   un
   886   599   612   un
   887   600  1785   un
   888   602   603   un
   889   602   617   un
   890   604   608   un
   891   605   606   un
   892   605   608   un
   893   605   610   un
   894   606   607   un
   895   606   615   un
   896   608   609   un
   897   610   611   un
   898   610   619   un
   899   613   614   un
   900   613   620   un
   901   615  1384   un
   902   615  1385   un
   903   616  1515   un
   904   616  1516   un
   905   617  1435   un
   906   617  1439   un
   907   618  1435   un
   908   618  1436   un
   909   619  1384   un
   910   619  1415   un
   911   620  1515   un
   912   620  1545   un
   913   621  1017   un
   914   621  1018   un
   915   622  1214   un
   916   622  1215   un
   917   623  1214   un
   918   623  1254   un
   919   624  1017   un
   920   624  1060   un
   921   625   626   un
   922   625   630   un
   923   625   632   un
   924   625   636   un
   925   625   667   un
   926   625   669   un
   927   625   670   un
   928   625   671   un
   929   626   631   un
   930   627   628   un
   931   627   631   un
   932   627   685   un
   933   628   629   un
   934   628   693   un
   935   630   649   un
   936   630   662   un
   937   631   684   un
   938   632   637   un
   939   633   634   un
   940   633   637   un
   941   633   688   un
   942   634   635   un
   943   634   692   un
   944   636   638   un
   945   636   660   un
   946   637   687   un
   947   638   639   un
   948   638   644   un
   949   638   671   un
   950   638   684   un
   951   639   643   un
   952   640   641   un
   953   640   643   un
   954   640   673   un
   955   641   642   un
   956   641   700   un
   957   643   672   un
   958   644   648   un
   959   645   646   un
   960   645   648   un
   961   645   682   un
   962   646   647   un
   963   646   699   un
   964   648   681   un
   965   649   650   un
   966   649   655   un
   967   649   669   un
   968   649   687   un
   969   650   654   un
   970   651   652   un
   971   651   654   un
   972   651   679   un
   973   652   653   un
   974   652   698   un
   975   654   678   un
   976   655   659   un
   977   656   657   un
   978   656   659   un
   979   656   676   un
   980   657   658   un
   981   657   701   un
   982   659   675   un
   983   660   661   un
   984   660   669   un
   985   660   672   un
   986   660   675   un
   987   661  1736   un
   988   662   663   un
   989   662   671   un
   990   662   678   un
   991   662   681   un
   992   663   666   un
   993   664   666   un
   994   666   667   un
   995   670  1739   un
   996   673   674   un
   997   673   696   un
   998   676   677   un
   999   676   695   un
  1000   679   680   un
  1001   679   694   un
  1002   682   683   un
  1003   682   697   un
  1004   685   686   un
  1005   685   690   un
  1006   688   689   un
  1007   688   691   un
  1008   690  1646   un
  1009   690  1650   un
  1010   691  1479   un
  1011   691  1484   un
  1012   692  1479   un
  1013   692  1480   un
  1014   693  1646   un
  1015   693  1647   un
  1016   694   971   un
  1017   694   972   un
  1018   695  1083   un
  1019   695  1084   un
  1020   696  1294   un
  1021   696  1295   un
  1022   697  1152   un
  1023   697  1153   un
  1024   698   971   un
  1025   698   998   un
  1026   699  1152   un
  1027   699  1178   un
  1028   700  1294   un
  1029   700  1308   un
  1030   701  1083   un
  1031   701  1091   un
  1032   702   703   un
  1033   702   707   un
  1034   702   709   un
  1035   702   710   un
  1036   702   756   un
  1037   702   758   un
  1038   702   759   un
  1039   702   761   un
  1040   703   708   un
  1041   704   705   un
  1042   704   708   un
  1043   704   778   un
  1044   705   706   un
  1045   705   789   un
  1046   707   723   un
  1047   707   740   un
  1048   708   777   un
  1049   709  1789   un
  1050   710   711   un
  1051   710   731   un
  1052   711   712   un
  1053   711   716   un
  1054   711   718   un
  1055   711   755   un
  1056   711   761   un
  1057   711   772   un
  1058   711   777   un
  1059   712   717   un
  1060   713   714   un
  1061   713   717   un
  1062   713   763   un
  1063   714   715   un
  1064   714   795   un
  1065   716   740   un
  1066   716   749   un
  1067   717   762   un
  1068   718   722   un
  1069   719   720   un
  1070   719   722   un
  1071   719   770   un
  1072   720   721   un
  1073   720   794   un
  1074   722   769   un
  1075   723   724   un
  1076   723   728   un
  1077   723   730   un
  1078   723   752   un
  1079   723   758   un
  1080   723   780   un
  1081   723   781   un
  1082   724   729   un
  1083   725   726   un
  1084   725   729   un
  1085   725   767   un
  1086   726   727   un
  1087   726   793   un
  1088   728   731   un
  1089   728   749   un
  1090   729   766   un
  1091   730  1795   un
  1092   731   732   un
  1093   731   736   un
  1094   731   755   un
  1095   731   758   un
  1096   731   762   un
  1097   731   765   un
  1098   732   735   un
  1099   733   735   un
  1100   735   759   un
  1101   736   739   un
  1102   737   739   un
  1103   739   750   un
  1104   740   741   un
  1105   740   745   un
  1106   740   752   un
  1107   740   761   un
  1108   740   766   un
  1109   740   769   un
  1110   741   744   un
  1111   742   744   un
  1112   744   753   un
  1113   745   748   un
  1114   746   748   un
  1115   748   756   un
  1116   749   750   un
  1117   749   752   un
  1118   749   753   un
  1119   749   755   un
  1120   749   782   un
  1121   749   783   un
  1122   763   764   un
  1123   763   791   un
  1124   765  1797   un
  1125   767   768   un
  1126   767   790   un
  1127   770   771   un
  1128   770   792   un
  1129   772   776   un
  1130   773   774   un
  1131   773   776   un
  1132   773   784   un
  1133   774   775   un
  1134   774   786   un
  1135   776   783   un
  1136   778   779   un
  1137   778   787   un
  1138   780  1791   un
  1139   781  1801   un
  1140   782  1803   un
  1141   784   785   un
  1142   784   788   un
  1143   786  1589   un
  1144   786  1590   un
  1145   787  1698   un
  1146   787  1702   un
  1147   788  1589   un
  1148   788  1644   un
  1149   789  1698   un
  1150   789  1699   un
  1151   790  1012   un
  1152   790  1013   un
  1153   791  1335   un
  1154   791  1336   un
  1155   792  1219   un
  1156   792  1220   un
  1157   793  1012   un
  1158   793  1058   un
  1159   794  1219   un
  1160   794  1252   un
  1161   795  1335   un
  1162   795  1359   un
  1163   796   797   un
  1164   796   813   un
  1165   796   814   un
  1166   797   801   un
  1167   798   799   un
  1168   798   801   un
  1169   798   820   un
  1170   799   800   un
  1171   799   823   un
  1172   801   819   un
  1173   802   803   un
  1174   802   813   un
  1175   802   819   un
  1176   803   807   un
  1177   804   805   un
  1178   804   807   un
  1179   804   817   un
  1180   805   806   un
  1181   805   825   un
  1182   807   816   un
  1183   808   809   un
  1184   808   813   un
  1185   808   816   un
  1186   809   812   un
  1187   810   812   un
  1188   812   814   un
  1189   817   818   un
  1190   817   824   un
  1191   820   821   un
  1192   820   822   un
  1193   822  1539   un
  1194   822  1553   un
  1195   823  1539   un
  1196   823  1540   un
  1197   824  1143   un
  1198   824  1144   un
  1199   825  1143   un
  1200   825  1182   un
  1201   826   827   un
  1202   826   843   un
  1203   826   844   un
  1204   827  1807   un
  1205   828   829   un
  1206   828   830   un
  1207   828   843   un
  1208   828   849   un
  1209   828   850   un
  1210   829   835   un
  1211   829   841   un
  1212   830   834   un
  1213   831   832   un
  1214   831   834   un
  1215   831   847   un
  1216   832   833   un
  1217   832   861   un
  1218   834   846   un
  1219   835   836   un
  1220   835   840   un
  1221   835   843   un
  1222   835   846   un
  1223   836   839   un
  1224   837   839   un
  1225   839   844   un
  1226   840  1754   un
  1227   841   842   un
  1228   841   855   un
  1229   842  1757   un
  1230   847   848   un
  1231   847   860   un
  1232   849  1809   un
  1233   850   854   un
  1234   851   852   un
  1235   851   854   un
  1236   851   856   un
  1237   852   853   un
  1238   852   858   un
  1239   854   855   un
  1240   856   857   un
  1241   856   859   un
  1242   858  1511   un
  1243   858  1512   un
  1244   859  1511   un
  1245   859  1543   un
  1246   860  1209   un
  1247   860  1210   un
  1248   861  1209   un
  1249   861  1256   un
  1250   862   863   un
  1251   862   864   un
  1252   862   883   un
  1253   862   885   un
  1254   862   886   un
  1255   863   865   un
  1256   863   878   un
  1257   864  1813   un
  1258   865   866   un
  1259   865   871   un
  1260   865   885   un
  1261   865   893   un
  1262   866   870   un
  1263   867   868   un
  1264   867   870   un
  1265   867   891   un
  1266   868   869   un
  1267   868   896   un
  1268   870   890   un
  1269   871   875   un
  1270   872   873   un
  1271   872   875   un
  1272   872   888   un
  1273   873   874   un
  1274   873   897   un
  1275   875   887   un
  1276   876   877   un
  1277   876   885   un
  1278   876   887   un
  1279   877  1772   un
  1280   878   879   un
  1281   878   890   un
  1282   879   882   un
  1283   880   882   un
  1284   882   883   un
  1285   886  1775   un
  1286   888   889   un
  1287   888   895   un
  1288   891   892   un
  1289   891   894   un
  1290   893  1815   un
  1291   894  1139   un
  1292   894  1140   un
  1293   895  1289   un
  1294   895  1290   un
  1295   896  1139   un
  1296   896  1176   un
  1297   897  1289   un
  1298   897  1310   un
  1299   898   899   un
  1300   898   900   un
  1301   898   933   un
  1302   898   935   un
  1303   898   936   un
  1304   899   905   un
  1305   899   923   un
  1306   900   904   un
  1307   901   902   un
  1308   901   904   un
  1309   901   945   un
  1310   902   903   un
  1311   902   957   un
  1312   904   944   un
  1313   905   906   un
  1314   905   910   un
  1315   905   912   un
  1316   905   931   un
  1317   905   935   un
  1318   905   944   un
  1319   905   947   un
  1320   906   911   un
  1321   907   908   un
  1322   907   911   un
  1323   907   942   un
  1324   908   909   un
  1325   908   961   un
  1326   910   917   un
  1327   910   929   un
  1328   911   941   un
  1329   912   916   un
  1330   913   914   un
  1331   913   916   un
  1332   913   939   un
  1333   914   915   un
  1334   914   962   un
  1335   916   938   un
  1336   917   918   un
  1337   917   922   un
  1338   917   935   un
  1339   917   938   un
  1340   918   921   un
  1341   919   921   un
  1342   921   936   un
  1343   922  1778   un
  1344   923   924   un
  1345   923   925   un
  1346   923   931   un
  1347   923   941   un
  1348   924  1748   un
  1349   925   928   un
  1350   926   928   un
  1351   928   933   un
  1352   929   930   un
  1353   929   931   un
  1354   929   932   un
  1355   929   952   un
  1356   930  1781   un
  1357   932  1751   un
  1358   939   940   un
  1359   939   960   un
  1360   942   943   un
  1361   942   959   un
  1362   945   946   un
  1363   945   956   un
  1364   947   951   un
  1365   948   949   un
  1366   948   951   un
  1367   948   953   un
  1368   949   950   un
  1369   949   955   un
  1370   951   952   un
  1371   953   954   un
  1372   953   958   un
  1373   955  1584   un
  1374   955  1585   un
  1375   956  1694   un
  1376   956  1704   un
  1377   957  1694   un
  1378   957  1695   un
  1379   958  1584   un
  1380   958  1642   un
  1381   959  1204   un
  1382   959  1205   un
  1383   960  1330   un
  1384   960  1331   un
  1385   961  1204   un
  1386   961  1250   un
  1387   962  1330   un
  1388   962  1361   un
  1389   963   964   un
  1390   963   968   un
  1391   963   990   un
  1392   963   993   un
  1393   963   996   un
  1394   964   967   un
  1395   965   967   un
  1396   967  1001   un
  1397   968   969   un
  1398   968   978   un
  1399   969   970   un
  1400   969   974   un
  1401   969   996   un
  1402   969  1001   un
  1403   970   973   un
  1404   971   973   un
  1405   973   997   un
  1406   974   977   un
  1407   975   977   un
  1408   977   999   un
  1409   978   979   un
  1410   978   997   un
  1411   979   983   un
  1412   980   981   un
  1413   980   983   un
  1414   980   994   un
  1415   981   982   un
  1416   981  1006   un
  1417   983   993   un
  1418   984   985   un
  1419   984   996   un
  1420   984   999   un
  1421   985   989   un
  1422   986   987   un
  1423   986   989   un
  1424   986   991   un
  1425   987   988   un
  1426   987  1005   un
  1427   989   990   un
  1428   991   992   un
  1429   991  1003   un
  1430   994   995   un
  1431   994  1004   un
  1432  1003  1399   un
  1433  1003  1400   un
  1434  1004  1458   un
  1435  1004  1459   un
  1436  1005  1399   un
  1437  1005  1404   un
  1438  1006  1458   un
  1439  1006  1468   un
  1440  1007  1008   un
  1441  1007  1009   un
  1442  1007  1050   un
  1443  1007  1053   un
  1444  1007  1056   un
  1445  1008  1730   un
  1446  1009  1010   un
  1447  1009  1020   un
  1448  1010  1011   un
  1449  1010  1014   un
  1450  1010  1016   un
  1451  1010  1049   un
  1452  1010  1056   un
  1453  1010  1061   un
  1454  1010  1065   un
  1455  1011  1015   un
  1456  1012  1015   un
  1457  1014  1031   un
  1458  1014  1042   un
  1459  1015  1057   un
  1460  1016  1019   un
  1461  1017  1019   un
  1462  1019  1059   un
  1463  1020  1021   un
  1464  1020  1026   un
  1465  1020  1049   un
  1466  1020  1057   un
  1467  1021  1025   un
  1468  1022  1023   un
  1469  1022  1025   un
  1470  1022  1054   un
  1471  1023  1024   un
  1472  1023  1073   un
  1473  1025  1053   un
  1474  1026  1030   un
  1475  1027  1028   un
  1476  1027  1030   un
  1477  1027  1044   un
  1478  1028  1029   un
  1479  1028  1074   un
  1480  1030  1043   un
  1481  1031  1032   un
  1482  1031  1037   un
  1483  1031  1056   un
  1484  1031  1059   un
  1485  1032  1036   un
  1486  1033  1034   un
  1487  1033  1036   un
  1488  1033  1047   un
  1489  1034  1035   un
  1490  1034  1075   un
  1491  1036  1046   un
  1492  1037  1041   un
  1493  1038  1039   un
  1494  1038  1041   un
  1495  1038  1051   un
  1496  1039  1040   un
  1497  1039  1072   un
  1498  1041  1050   un
  1499  1042  1043   un
  1500  1042  1046   un
  1501  1042  1049   un
  1502  1042  1066   un
  1503  1044  1045   un
  1504  1044  1071   un
  1505  1047  1048   un
  1506  1047  1068   un
  1507  1051  1052   un
  1508  1051  1069   un
  1509  1054  1055   un
  1510  1054  1070   un
  1511  1061  1064   un
  1512  1062  1064   un
  1513  1064  1066   un
  1514  1065  1733   un
  1515  1068  1395   un
  1516  1068  1396   un
  1517  1069  1425   un
  1518  1069  1426   un
  1519  1070  1496   un
  1520  1070  1497   un
  1521  1071  1462   un
  1522  1071  1463   un
  1523  1072  1425   un
  1524  1072  1430   un
  1525  1073  1496   un
  1526  1073  1502   un
  1527  1074  1462   un
  1528  1074  1471   un
  1529  1075  1395   un
  1530  1075  1407   un
  1531  1076  1077   un
  1532  1076  1088   un
  1533  1076  1089   un
  1534  1077  1080   un
  1535  1078  1080   un
  1536  1080  1092   un
  1537  1081  1082   un
  1538  1081  1089   un
  1539  1081  1092   un
  1540  1082  1085   un
  1541  1083  1085   un
  1542  1085  1090   un
  1543  1086  1087   un
  1544  1086  1089   un
  1545  1086  1090   un
  1546  1087  1819   un
  1547  1088  1821   un
  1548  1094  1095   un
  1549  1094  1113   un
  1550  1094  1114   un
  1551  1095  1098   un
  1552  1096  1098   un
  1553  1098  1120   un
  1554  1099  1100   un
  1555  1099  1101   un
  1556  1099  1114   un
  1557  1099  1116   un
  1558  1099  1120   un
  1559  1100  1102   un
  1560  1100  1109   un
  1561  1101  1796   un
  1562  1102  1103   un
  1563  1102  1108   un
  1564  1102  1114   un
  1565  1102  1115   un
  1566  1103  1107   un
  1567  1104  1105   un
  1568  1104  1107   un
  1569  1104  1111   un
  1570  1105  1106   un
  1571  1105  1125   un
  1572  1107  1110   un
  1573  1108  1825   un
  1574  1109  1110   un
  1575  1109  1122   un
  1576  1111  1112   un
  1577  1111  1124   un
  1578  1113  1827   un
  1579  1115  1799   un
  1580  1116  1119   un
  1581  1117  1119   un
  1582  1119  1122   un
  1583  1124  1452   un
  1584  1124  1453   un
  1585  1125  1452   un
  1586  1125  1473   un
  1587  1126  1127   un
  1588  1126  1130   un
  1589  1126  1132   un
  1590  1126  1135   un
  1591  1126  1167   un
  1592  1126  1170   un
  1593  1126  1171   un
  1594  1126  1174   un
  1595  1127  1131   un
  1596  1128  1131   un
  1597  1130  1146   un
  1598  1130  1161   un
  1599  1131  1183   un
  1600  1132  1136   un
  1601  1133  1136   un
  1602  1135  1137   un
  1603  1135  1155   un
  1604  1136  1185   un
  1605  1137  1138   un
  1606  1137  1142   un
  1607  1137  1174   un
  1608  1137  1183   un
  1609  1138  1141   un
  1610  1139  1141   un
  1611  1141  1175   un
  1612  1142  1145   un
  1613  1143  1145   un
  1614  1145  1181   un
  1615  1146  1147   un
  1616  1146  1151   un
  1617  1146  1170   un
  1618  1146  1185   un
  1619  1147  1150   un
  1620  1148  1150   un
  1621  1150  1179   un
  1622  1151  1154   un
  1623  1152  1154   un
  1624  1154  1177   un
  1625  1155  1156   un
  1626  1155  1170   un
  1627  1155  1175   un
  1628  1155  1177   un
  1629  1156  1160   un
  1630  1157  1158   un
  1631  1157  1160   un
  1632  1157  1172   un
  1633  1158  1159   un
  1634  1158  1190   un
  1635  1160  1171   un
  1636  1161  1162   un
  1637  1161  1174   un
  1638  1161  1179   un
  1639  1161  1181   un
  1640  1162  1166   un
  1641  1163  1164   un
  1642  1163  1166   un
  1643  1163  1168   un
  1644  1164  1165   un
  1645  1164  1189   un
  1646  1166  1167   un
  1647  1168  1169   un
  1648  1168  1187   un
  1649  1172  1173   un
  1650  1172  1188   un
  1651  1187  1527   un
  1652  1187  1528   un
  1653  1188  1618   un
  1654  1188  1619   un
  1655  1189  1527   un
  1656  1189  1532   un
  1657  1190  1618   un
  1658  1190  1627   un
  1659  1191  1192   un
  1660  1191  1195   un
  1661  1191  1197   un
  1662  1191  1200   un
  1663  1191  1241   un
  1664  1191  1244   un
  1665  1191  1245   un
  1666  1191  1248   un
  1667  1192  1196   un
  1668  1193  1196   un
  1669  1195  1212   un
  1670  1195  1229   un
  1671  1196  1261   un
  1672  1197  1201   un
  1673  1198  1201   un
  1674  1200  1202   un
  1675  1200  1222   un
  1676  1201  1263   un
  1677  1202  1203   un
  1678  1202  1206   un
  1679  1202  1208   un
  1680  1202  1240   un
  1681  1202  1248   un
  1682  1202  1257   un
  1683  1202  1261   un
  1684  1203  1207   un
  1685  1204  1207   un
  1686  1206  1229   un
  1687  1206  1236   un
  1688  1207  1249   un
  1689  1208  1211   un
  1690  1209  1211   un
  1691  1211  1255   un
  1692  1212  1213   un
  1693  1212  1216   un
  1694  1212  1218   un
  1695  1212  1238   un
  1696  1212  1244   un
  1697  1212  1263   un
  1698  1212  1265   un
  1699  1213  1217   un
  1700  1214  1217   un
  1701  1216  1222   un
  1702  1216  1236   un
  1703  1217  1253   un
  1704  1218  1221   un
  1705  1219  1221   un
  1706  1221  1251   un
  1707  1222  1223   un
  1708  1222  1228   un
  1709  1222  1240   un
  1710  1222  1244   un
  1711  1222  1249   un
  1712  1222  1251   un
  1713  1223  1227   un
  1714  1224  1225   un
  1715  1224  1227   un
  1716  1224  1246   un
  1717  1225  1226   un
  1718  1225  1276   un
  1719  1227  1245   un
  1720  1228  1831   un
  1721  1229  1230   un
  1722  1229  1231   un
  1723  1229  1238   un
  1724  1229  1248   un
  1725  1229  1253   un
  1726  1229  1255   un
  1727  1230  1837   un
  1728  1231  1235   un
  1729  1232  1233   un
  1730  1232  1235   un
  1731  1232  1242   un
  1732  1233  1234   un
  1733  1233  1275   un
  1734  1235  1241   un
  1735  1236  1237   un
  1736  1236  1238   un
  1737  1236  1239   un
  1738  1236  1240   un
  1739  1236  1269   un
  1740  1236  1271   un
  1741  1237  1833   un
  1742  1239  1839   un
  1743  1242  1243   un
  1744  1242  1273   un
  1745  1246  1247   un
  1746  1246  1274   un
  1747  1257  1260   un
  1748  1258  1260   un
  1749  1260  1271   un
  1750  1265  1268   un
  1751  1266  1268   un
  1752  1268  1269   un
  1753  1273  1567   un
  1754  1273  1568   un
  1755  1274  1676   un
  1756  1274  1677   un
  1757  1275  1567   un
  1758  1275  1572   un
  1759  1276  1676   un
  1760  1276  1684   un
  1761  1277  1278   un
  1762  1277  1281   un
  1763  1277  1283   un
  1764  1277  1303   un
  1765  1277  1306   un
  1766  1278  1282   un
  1767  1279  1282   un
  1768  1281  1292   un
  1769  1281  1297   un
  1770  1282  1311   un
  1771  1283  1286   un
  1772  1284  1286   un
  1773  1286  1313   un
  1774  1287  1288   un
  1775  1287  1306   un
  1776  1287  1311   un
  1777  1288  1291   un
  1778  1289  1291   un
  1779  1291  1309   un
  1780  1292  1293   un
  1781  1292  1313   un
  1782  1293  1296   un
  1783  1294  1296   un
  1784  1296  1307   un
  1785  1297  1298   un
  1786  1297  1306   un
  1787  1297  1307   un
  1788  1297  1309   un
  1789  1298  1302   un
  1790  1299  1300   un
  1791  1299  1302   un
  1792  1299  1304   un
  1793  1300  1301   un
  1794  1300  1316   un
  1795  1302  1303   un
  1796  1304  1305   un
  1797  1304  1315   un
  1798  1315  1613   un
  1799  1315  1614   un
  1800  1316  1613   un
  1801  1316  1624   un
  1802  1317  1318   un
  1803  1317  1321   un
  1804  1317  1323   un
  1805  1317  1354   un
  1806  1317  1357   un
  1807  1318  1322   un
  1808  1319  1322   un
  1809  1321  1333   un
  1810  1321  1338   un
  1811  1322  1366   un
  1812  1323  1326   un
  1813  1324  1326   un
  1814  1326  1368   un
  1815  1327  1328   un
  1816  1327  1329   un
  1817  1327  1357   un
  1818  1327  1362   un
  1819  1327  1366   un
  1820  1328  1338   un
  1821  1328  1349   un
  1822  1329  1332   un
  1823  1330  1332   un
  1824  1332  1360   un
  1825  1333  1334   un
  1826  1333  1350   un
  1827  1333  1368   un
  1828  1333  1370   un
  1829  1334  1337   un
  1830  1335  1337   un
  1831  1337  1358   un
  1832  1338  1339   un
  1833  1338  1344   un
  1834  1338  1350   un
  1835  1338  1357   un
  1836  1338  1358   un
  1837  1338  1360   un
  1838  1339  1343   un
  1839  1340  1341   un
  1840  1340  1343   un
  1841  1340  1352   un
  1842  1341  1342   un
  1843  1341  1381   un
  1844  1343  1351   un
  1845  1344  1348   un
  1846  1345  1346   un
  1847  1345  1348   un
  1848  1345  1355   un
  1849  1346  1347   un
  1850  1346  1380   un
  1851  1348  1354   un
  1852  1349  1350   un
  1853  1349  1351   un
  1854  1349  1374   un
  1855  1349  1376   un
  1856  1352  1353   un
  1857  1352  1378   un
  1858  1355  1356   un
  1859  1355  1379   un
  1860  1362  1365   un
  1861  1363  1365   un
  1862  1365  1376   un
  1863  1370  1373   un
  1864  1371  1373   un
  1865  1373  1374   un
  1866  1378  1609   un
  1867  1378  1610   un
  1868  1379  1671   un
  1869  1379  1672   un
  1870  1380  1671   un
  1871  1380  1681   un
  1872  1381  1609   un
  1873  1381  1632   un
  1874  1382  1383   un
  1875  1382  1387   un
  1876  1382  1406   un
  1877  1383  1386   un
  1878  1384  1386   un
  1879  1386  1414   un
  1880  1387  1388   un
  1881  1387  1393   un
  1882  1388  1389   un
  1883  1388  1405   un
  1884  1388  1410   un
  1885  1388  1414   un
  1886  1389  1392   un
  1887  1390  1392   un
  1888  1392  1408   un
  1889  1393  1394   un
  1890  1393  1398   un
  1891  1393  1405   un
  1892  1393  1408   un
  1893  1394  1397   un
  1894  1395  1397   un
  1895  1397  1406   un
  1896  1398  1401   un
  1897  1399  1401   un
  1898  1401  1403   un
  1899  1402  1403   un
  1900  1402  1405   un
  1901  1402  1416   un
  1902  1410  1413   un
  1903  1411  1413   un
  1904  1413  1416   un
  1905  1418  1419   un
  1906  1418  1431   un
  1907  1418  1434   un
  1908  1419  1422   un
  1909  1420  1422   un
  1910  1422  1432   un
  1911  1423  1424   un
  1912  1423  1431   un
  1913  1423  1432   un
  1914  1424  1427   un
  1915  1425  1427   un
  1916  1427  1429   un
  1917  1428  1429   un
  1918  1428  1431   un
  1919  1428  1438   un
  1920  1434  1437   un
  1921  1435  1437   un
  1922  1437  1438   un
  1923  1440  1441   un
  1924  1440  1442   un
  1925  1440  1470   un
  1926  1440  1472   un
  1927  1440  1474   un
  1928  1441  1802   un
  1929  1442  1443   un
  1930  1442  1450   un
  1931  1443  1444   un
  1932  1443  1447   un
  1933  1443  1449   un
  1934  1443  1469   un
  1935  1443  1474   un
  1936  1443  1478   un
  1937  1443  1482   un
  1938  1444  1448   un
  1939  1445  1448   un
  1940  1447  1456   un
  1941  1447  1465   un
  1942  1448  1475   un
  1943  1449  1718   un
  1944  1450  1451   un
  1945  1450  1455   un
  1946  1450  1469   un
  1947  1450  1475   un
  1948  1451  1454   un
  1949  1452  1454   un
  1950  1454  1472   un
  1951  1455  1820   un
  1952  1456  1457   un
  1953  1456  1461   un
  1954  1456  1474   un
  1955  1456  1477   un
  1956  1457  1460   un
  1957  1458  1460   un
  1958  1460  1467   un
  1959  1461  1464   un
  1960  1462  1464   un
  1961  1464  1470   un
  1962  1465  1466   un
  1963  1465  1467   un
  1964  1465  1469   un
  1965  1465  1483   un
  1966  1466  1823   un
  1967  1477  1721   un
  1968  1478  1481   un
  1969  1479  1481   un
  1970  1481  1483   un
  1971  1482  1805   un
  1972  1485  1486   un
  1973  1485  1489   un
  1974  1485  1491   un
  1975  1485  1503   un
  1976  1485  1507   un
  1977  1486  1490   un
  1978  1487  1490   un
  1979  1489  1494   un
  1980  1489  1499   un
  1981  1490  1504   un
  1982  1491  1724   un
  1983  1492  1493   un
  1984  1492  1503   un
  1985  1492  1504   un
  1986  1493  1826   un
  1987  1494  1495   un
  1988  1494  1506   un
  1989  1495  1498   un
  1990  1496  1498   un
  1991  1498  1501   un
  1992  1499  1500   un
  1993  1499  1501   un
  1994  1499  1503   un
  1995  1499  1508   un
  1996  1500  1829   un
  1997  1506  1727   un
  1998  1507  1790   un
  1999  1508  1793   un
  2000  1509  1510   un
  2001  1509  1514   un
  2002  1509  1517   un
  2003  1509  1534   un
  2004  1509  1535   un
  2005  1510  1513   un
  2006  1511  1513   un
  2007  1513  1542   un
  2008  1514  1518   un
  2009  1515  1518   un
  2010  1517  1519   un
  2011  1517  1524   un
  2012  1518  1544   un
  2013  1519  1520   un
  2014  1519  1533   un
  2015  1519  1538   un
  2016  1519  1542   un
  2017  1520  1742   un
  2018  1521  1522   un
  2019  1521  1523   un
  2020  1521  1534   un
  2021  1521  1544   un
  2022  1521  1546   un
  2023  1522  1524   un
  2024  1522  1530   un
  2025  1523  1712   un
  2026  1524  1525   un
  2027  1524  1526   un
  2028  1524  1533   un
  2029  1524  1534   un
  2030  1524  1536   un
  2031  1524  1537   un
  2032  1525  1838   un
  2033  1526  1529   un
  2034  1527  1529   un
  2035  1529  1531   un
  2036  1530  1531   un
  2037  1530  1533   un
  2038  1530  1550   un
  2039  1530  1552   un
  2040  1535  1841   un
  2041  1536  1745   un
  2042  1537  1715   un
  2043  1538  1541   un
  2044  1539  1541   un
  2045  1541  1552   un
  2046  1546  1549   un
  2047  1547  1549   un
  2048  1549  1550   un
  2049  1554  1555   un
  2050  1554  1573   un
  2051  1554  1578   un
  2052  1555  1558   un
  2053  1556  1558   un
  2054  1558  1574   un
  2055  1559  1560   un
  2056  1559  1561   un
  2057  1559  1579   un
  2058  1560  1565   un
  2059  1560  1570   un
  2060  1561  1564   un
  2061  1562  1564   un
  2062  1564  1576   un
  2063  1565  1566   un
  2064  1565  1573   un
  2065  1565  1574   un
  2066  1565  1576   un
  2067  1566  1569   un
  2068  1567  1569   un
  2069  1569  1571   un
  2070  1570  1571   un
  2071  1570  1573   un
  2072  1570  1580   un
  2073  1570  1581   un
  2074  1578  1808   un
  2075  1579  1784   un
  2076  1580  1787   un
  2077  1581  1811   un
  2078  1582  1583   un
  2079  1582  1586   un
  2080  1582  1588   un
  2081  1582  1591   un
  2082  1582  1629   un
  2083  1582  1630   un
  2084  1582  1631   un
  2085  1582  1633   un
  2086  1583  1587   un
  2087  1584  1587   un
  2088  1586  1600   un
  2089  1586  1616   un
  2090  1587  1641   un
  2091  1588  1592   un
  2092  1589  1592   un
  2093  1591  1593   un
  2094  1591  1607   un
  2095  1592  1643   un
  2096  1593  1594   un
  2097  1593  1595   un
  2098  1593  1596   un
  2099  1593  1628   un
  2100  1593  1633   un
  2101  1593  1640   un
  2102  1593  1641   un
  2103  1594  1766   un
  2104  1595  1616   un
  2105  1595  1622   un
  2106  1596  1599   un
  2107  1597  1599   un
  2108  1599  1638   un
  2109  1600  1601   un
  2110  1600  1602   un
  2111  1600  1603   un
  2112  1600  1625   un
  2113  1600  1630   un
  2114  1600  1643   un
  2115  1600  1645   un
  2116  1601  1706   un
  2117  1602  1607   un
  2118  1602  1622   un
  2119  1603  1606   un
  2120  1604  1606   un
  2121  1606  1635   un
  2122  1607  1608   un
  2123  1607  1612   un
  2124  1607  1628   un
  2125  1607  1630   un
  2126  1607  1634   un
  2127  1607  1635   un
  2128  1608  1611   un
  2129  1609  1611   un
  2130  1611  1631   un
  2131  1612  1615   un
  2132  1613  1615   un
  2133  1615  1623   un
  2134  1616  1617   un
  2135  1616  1621   un
  2136  1616  1625   un
  2137  1616  1633   un
  2138  1616  1637   un
  2139  1616  1638   un
  2140  1617  1620   un
  2141  1618  1620   un
  2142  1620  1626   un
  2143  1621  1832   un
  2144  1622  1623   un
  2145  1622  1625   un
  2146  1622  1626   un
  2147  1622  1628   un
  2148  1622  1649   un
  2149  1622  1651   un
  2150  1629  1835   un
  2151  1634  1769   un
  2152  1637  1709   un
  2153  1640  1814   un
  2154  1645  1648   un
  2155  1646  1648   un
  2156  1648  1649   un
  2157  1651  1817   un
  2158  1652  1653   un
  2159  1652  1656   un
  2160  1652  1658   un
  2161  1652  1685   un
  2162  1652  1693   un
  2163  1653  1657   un
  2164  1654  1657   un
  2165  1656  1674   un
  2166  1656  1679   un
  2167  1657  1686   un
  2168  1658  1760   un
  2169  1659  1660   un
  2170  1659  1663   un
  2171  1659  1665   un
  2172  1659  1682   un
  2173  1659  1697   un
  2174  1660  1664   un
  2175  1661  1664   un
  2176  1663  1669   un
  2177  1663  1679   un
  2178  1664  1690   un
  2179  1665  1668   un
  2180  1666  1668   un
  2181  1668  1688   un
  2182  1669  1670   un
  2183  1669  1685   un
  2184  1669  1686   un
  2185  1669  1688   un
  2186  1670  1673   un
  2187  1671  1673   un
  2188  1673  1680   un
  2189  1674  1675   un
  2190  1674  1682   un
  2191  1674  1690   un
  2192  1674  1692   un
  2193  1675  1678   un
  2194  1676  1678   un
  2195  1678  1683   un
  2196  1679  1680   un
  2197  1679  1682   un
  2198  1679  1683   un
  2199  1679  1685   un
  2200  1679  1701   un
  2201  1679  1703   un
  2202  1692  1763   un
  2203  1693  1696   un
  2204  1694  1696   un
  2205  1696  1703   un
  2206  1697  1700   un
  2207  1698  1700   un
  2208  1700  1701   un
  2209  1707  1708   un
  2210  1709  1710   un
  2211  1713  1714   un
  2212  1715  1716   un
  2213  1719  1720   un
  2214  1721  1722   un
  2215  1725  1726   un
  2216  1727  1728   un
  2217  1731  1732   un
  2218  1733  1734   un
  2219  1737  1738   un
  2220  1739  1740   un
  2221  1743  1744   un
  2222  1745  1746   un
  2223  1749  1750   un
  2224  1751  1752   un
  2225  1755  1756   un
  2226  1757  1758   un
  2227  1761  1762   un
  2228  1763  1764   un
  2229  1767  1768   un
  2230  1769  1770   un
  2231  1773  1774   un
  2232  1775  1776   un
  2233  1779  1780   un
  2234  1781  1782   un
  2235  1785  1786   un
  2236  1787  1788   un
  2237  1791  1792   un
  2238  1793  1794   un
  2239  1797  1798   un
  2240  1799  1800   un
  2241  1803  1804   un
  2242  1805  1806   un
  2243  1809  1810   un
  2244  1811  1812   un
  2245  1815  1816   un
  2246  1817  1818   un
  2247  1821  1822   un
  2248  1823  1824   un
  2249  1827  1828   un
  2250  1829  1830   un
  2251  1833  1834   un
  2252  1835  1836   un
  2253  1839  1840   un
  2254  1841  1842   un
@<TRIPOS>SUBSTRUCTURE
     1 RES1        1 GROUP             0 ****  ****    0  
@<TRIPOS>CRYSIN
   17.8348   17.8348   17.8348   90.0000   90.0000   90.0000     1     1
